LTspice 24.1.9 for Windows
Circuit: C:\users\dg\Desktop\UF\design1\PowerMesh\spice\sim\plc.net
Start Time: Wed Apr  8 16:43:33 2026
C:\users\dg\Desktop\UF\design1\PowerMesh\spice\sim\plc.net(16): Sub-circuit name listed twice. This is most likely because the corresponding symbol contains the name in more than one attribute.
X§U1 N003 N005 N006 N001 TLP785 TLP785
                               ^^^^^^^
solver = Normal
Maximum thread count: 16
tnom = 27
temp = 27
method = trap

Direct Newton iteration for .op point succeeded.
Warning: Simulation tolerance relaxed to achieve convergence from 2.5006771169171463e-05 to 2.5006771169172463e-05 seconds.
Warning: Simulation tolerance relaxed to achieve convergence from 2.5055399581862407e-05 to 2.5055399581863406e-05 seconds.
Warning: Simulation tolerance relaxed to achieve convergence from 2.5201873007743771e-05 to 2.5201873007744771e-05 seconds.
Warning: Simulation tolerance relaxed to achieve convergence from 2.5396366145926050e-05 to 2.5396366145927050e-05 seconds.
Warning: Simulation tolerance relaxed to achieve convergence from 2.5397170541947234e-05 to 2.5397170541948233e-05 seconds.
Warning: Simulation tolerance relaxed to achieve convergence from 2.5397170615619818e-05 to 2.5397170615620818e-05 seconds.
Warning: Simulation tolerance relaxed to achieve convergence from 2.5397170626676614e-05 to 2.5397170626677613e-05 seconds.
Warning: Simulation tolerance relaxed to achieve convergence from 2.5397170647180232e-05 to 2.5397170647181232e-05 seconds.
Warning: Simulation tolerance relaxed to achieve convergence from 2.5397170698733276e-05 to 2.5397170698734276e-05 seconds.
Warning: Simulation tolerance relaxed to achieve convergence from 2.5397170702120212e-05 to 2.5397170702121212e-05 seconds.
Warning: Simulation tolerance relaxed to achieve convergence from 2.5397171301030775e-05 to 2.5397171301031774e-05 seconds.
Warning: Simulation tolerance relaxed to achieve convergence from 2.5397171359805693e-05 to 2.5397171359806693e-05 seconds.
Warning: Simulation tolerance relaxed to achieve convergence from 2.5397171366623560e-05 to 2.5397171366624559e-05 seconds.
Warning: Simulation tolerance relaxed to achieve convergence from 2.5397171368307522e-05 to 2.5397171368308522e-05 seconds.
Warning: Simulation tolerance relaxed to achieve convergence from 2.5397171388722148e-05 to 2.5397171388723147e-05 seconds.
Warning: Simulation tolerance relaxed to achieve convergence from 2.5397171401328912e-05 to 2.5397171401329911e-05 seconds.
Warning: Simulation tolerance relaxed to achieve convergence from 2.5397171444215118e-05 to 2.5397171444216118e-05 seconds.
Warning: Simulation tolerance relaxed to achieve convergence from 2.5397171767641917e-05 to 2.5397171767642916e-05 seconds.
Warning: Simulation tolerance relaxed to achieve convergence from 2.5397172077095023e-05 to 2.5397172077096022e-05 seconds.
Warning: Simulation tolerance relaxed to achieve convergence from 2.5397172093646714e-05 to 2.5397172093647713e-05 seconds.
Warning: Simulation tolerance relaxed to achieve convergence from 2.5397172104400509e-05 to 2.5397172104401508e-05 seconds.
Warning: Simulation tolerance relaxed to achieve convergence from 2.5397172105345493e-05 to 2.5397172105346492e-05 seconds.
Warning: Simulation tolerance relaxed to achieve convergence from 2.5397172109351413e-05 to 2.5397172109352412e-05 seconds.
Warning: Simulation tolerance relaxed to achieve convergence from 2.5397172111021382e-05 to 2.5397172111022382e-05 seconds.
Warning: Simulation tolerance relaxed to achieve convergence from 2.5397172118877240e-05 to 2.5397172118878240e-05 seconds.
Warning: Simulation tolerance relaxed to achieve convergence from 2.5397172120675207e-05 to 2.5397172120676206e-05 seconds.
Warning: Simulation tolerance relaxed to achieve convergence from 2.5397172132664978e-05 to 2.5397172132665978e-05 seconds.
Warning: Simulation tolerance relaxed to achieve convergence from 2.5397172162095433e-05 to 2.5397172162096432e-05 seconds.
Warning: Simulation tolerance relaxed to achieve convergence from 2.5397172171855248e-05 to 2.5397172171856247e-05 seconds.
Warning: Simulation tolerance relaxed to achieve convergence from 2.5397172402178827e-05 to 2.5397172402179827e-05 seconds.
Warning: Simulation tolerance relaxed to achieve convergence from 2.5397172759884029e-05 to 2.5397172759885029e-05 seconds.
Warning: Simulation tolerance relaxed to achieve convergence from 2.5397172767087892e-05 to 2.5397172767088892e-05 seconds.
Warning: Simulation tolerance relaxed to achieve convergence from 2.5397172830308713e-05 to 2.5397172830309713e-05 seconds.
Warning: Simulation tolerance relaxed to achieve convergence from 2.5397172846734407e-05 to 2.5397172846735406e-05 seconds.
Warning: Simulation tolerance relaxed to achieve convergence from 2.5397172870470960e-05 to 2.5397172870471960e-05 seconds.
Warning: Simulation tolerance relaxed to achieve convergence from 2.5397172909918210e-05 to 2.5397172909919209e-05 seconds.
Warning: Simulation tolerance relaxed to achieve convergence from 2.5397172943880582e-05 to 2.5397172943881581e-05 seconds.
Warning: Simulation tolerance relaxed to achieve convergence from 2.5397173365519586e-05 to 2.5397173365520586e-05 seconds.
Warning: Simulation tolerance relaxed to achieve convergence from 2.5397173373658441e-05 to 2.5397173373659441e-05 seconds.
Warning: Simulation tolerance relaxed to achieve convergence from 2.5397173457613793e-05 to 2.5397173457614792e-05 seconds.
Warning: Simulation tolerance relaxed to achieve convergence from 2.5397173479373357e-05 to 2.5397173479374357e-05 seconds.
Warning: Simulation tolerance relaxed to achieve convergence from 2.5397173489302156e-05 to 2.5397173489303155e-05 seconds.
Warning: Simulation tolerance relaxed to achieve convergence from 2.5397173621098676e-05 to 2.5397173621099676e-05 seconds.
Warning: Simulation tolerance relaxed to achieve convergence from 2.5397173652153093e-05 to 2.5397173652154092e-05 seconds.
Warning: Simulation tolerance relaxed to achieve convergence from 2.5397173687605440e-05 to 2.5397173687606440e-05 seconds.
Warning: Simulation tolerance relaxed to achieve convergence from 2.5397173723451783e-05 to 2.5397173723452783e-05 seconds.
Warning: Simulation tolerance relaxed to achieve convergence from 2.5397173787218544e-05 to 2.5397173787219544e-05 seconds.
Warning: Simulation tolerance relaxed to achieve convergence from 2.5397174092544747e-05 to 2.5397174092545746e-05 seconds.
Warning: Simulation tolerance relaxed to achieve convergence from 2.5397174211402375e-05 to 2.5397174211403374e-05 seconds.
Warning: Simulation tolerance relaxed to achieve convergence from 2.5397174223664136e-05 to 2.5397174223665135e-05 seconds.
Warning: Simulation tolerance relaxed to achieve convergence from 2.5397174271079231e-05 to 2.5397174271080230e-05 seconds.
Warning: Simulation tolerance relaxed to achieve convergence from 2.5397174273581183e-05 to 2.5397174273582183e-05 seconds.
Warning: Simulation tolerance relaxed to achieve convergence from 2.5397174280112068e-05 to 2.5397174280113067e-05 seconds.
Warning: Simulation tolerance relaxed to achieve convergence from 2.5397174326514196e-05 to 2.5397174326515196e-05 seconds.
Warning: Simulation tolerance relaxed to achieve convergence from 2.5397174373321325e-05 to 2.5397174373322325e-05 seconds.
Warning: Simulation tolerance relaxed to achieve convergence from 2.5397174976689914e-05 to 2.5397174976690913e-05 seconds.
Warning: Simulation tolerance relaxed to achieve convergence from 2.5397174984632765e-05 to 2.5397174984633765e-05 seconds.
Warning: Simulation tolerance relaxed to achieve convergence from 2.5397174994305597e-05 to 2.5397174994306597e-05 seconds.
Warning: Simulation tolerance relaxed to achieve convergence from 2.5397174996144560e-05 to 2.5397174996145559e-05 seconds.
Warning: Simulation tolerance relaxed to achieve convergence from 2.5397175027314966e-05 to 2.5397175027315965e-05 seconds.
Warning: Simulation tolerance relaxed to achieve convergence from 2.5397175104486552e-05 to 2.5397175104487551e-05 seconds.
Warning: Simulation tolerance relaxed to achieve convergence from 2.5397175111437426e-05 to 2.5397175111438426e-05 seconds.
Warning: Simulation tolerance relaxed to achieve convergence from 2.5397175122466222e-05 to 2.5397175122467222e-05 seconds.
Warning: Simulation tolerance relaxed to achieve convergence from 2.5397175204695720e-05 to 2.5397175204696719e-05 seconds.
Warning: Simulation tolerance relaxed to achieve convergence from 2.5397175396728203e-05 to 2.5397175396729202e-05 seconds.
Warning: Simulation tolerance relaxed to achieve convergence from 2.5397175625091121e-05 to 2.5397175625092120e-05 seconds.
Warning: Simulation tolerance relaxed to achieve convergence from 2.5397175647320721e-05 to 2.5397175647321721e-05 seconds.
Warning: Simulation tolerance relaxed to achieve convergence from 2.5397175662219428e-05 to 2.5397175662220427e-05 seconds.
Warning: Simulation tolerance relaxed to achieve convergence from 2.5397178581180708e-05 to 2.5397178581181707e-05 seconds.
Warning: Simulation tolerance relaxed to achieve convergence from 2.5398505512537859e-05 to 2.5398505512538858e-05 seconds.
Warning: Simulation tolerance relaxed to achieve convergence from 2.5409323453935480e-05 to 2.5409323453936480e-05 seconds.
Warning: Simulation tolerance relaxed to achieve convergence from 2.5429464130000126e-05 to 2.5429464130001125e-05 seconds.
Warning: Simulation tolerance relaxed to achieve convergence from 2.5429468629232452e-05 to 2.5429468629233451e-05 seconds.
Warning: Simulation tolerance relaxed to achieve convergence from 2.5437482509574851e-05 to 2.5437482509575850e-05 seconds.
Warning: Simulation tolerance relaxed to achieve convergence from 2.5450759119436387e-05 to 2.5450759119437387e-05 seconds.
Warning: Simulation tolerance relaxed to achieve convergence from 2.5478359323968684e-05 to 2.5478359323969683e-05 seconds.
Warning: Simulation tolerance relaxed to achieve convergence from 2.5581537602908897e-05 to 2.5581537602909897e-05 seconds.
Warning: Simulation tolerance relaxed to achieve convergence from 2.5613593097424499e-05 to 2.5613593097425498e-05 seconds.
Warning: Simulation tolerance relaxed to achieve convergence from 2.5613594057453766e-05 to 2.5613594057454765e-05 seconds.
Warning: Simulation tolerance relaxed to achieve convergence from 2.5613594093041665e-05 to 2.5613594093042665e-05 seconds.
Warning: Simulation tolerance relaxed to achieve convergence from 2.5613594584566167e-05 to 2.5613594584567166e-05 seconds.
Warning: Simulation tolerance relaxed to achieve convergence from 2.5613596311727058e-05 to 2.5613596311728058e-05 seconds.
Warning: Simulation tolerance relaxed to achieve convergence from 2.5613597850289514e-05 to 2.5613597850290514e-05 seconds.
Warning: Simulation tolerance relaxed to achieve convergence from 2.5613599271572409e-05 to 2.5613599271573409e-05 seconds.
Warning: Simulation tolerance relaxed to achieve convergence from 2.5613600040005175e-05 to 2.5613600040006174e-05 seconds.
Warning: Simulation tolerance relaxed to achieve convergence from 2.5613601806687959e-05 to 2.5613601806688959e-05 seconds.
Warning: Simulation tolerance relaxed to achieve convergence from 2.5613602188315828e-05 to 2.5613602188316827e-05 seconds.
Warning: Simulation tolerance relaxed to achieve convergence from 2.5613602973936477e-05 to 2.5613602973937477e-05 seconds.
Warning: Simulation tolerance relaxed to achieve convergence from 2.5613603851524878e-05 to 2.5613603851525877e-05 seconds.
Warning: Simulation tolerance relaxed to achieve convergence from 2.5613605080617183e-05 to 2.5613605080618182e-05 seconds.
Warning: Simulation tolerance relaxed to achieve convergence from 2.5613605914123722e-05 to 2.5613605914124721e-05 seconds.
Warning: Simulation tolerance relaxed to achieve convergence from 2.5613606554292809e-05 to 2.5613606554293808e-05 seconds.
Warning: Simulation tolerance relaxed to achieve convergence from 2.5613609246036904e-05 to 2.5613609246037904e-05 seconds.
Warning: Simulation tolerance relaxed to achieve convergence from 2.5650002564487617e-05 to 2.5650002564488617e-05 seconds.
Warning: Simulation tolerance relaxed to achieve convergence from 2.5652394983348404e-05 to 2.5652394983349404e-05 seconds.
Warning: Simulation tolerance relaxed to achieve convergence from 2.5652400727035472e-05 to 2.5652400727036472e-05 seconds.
Warning: Simulation tolerance relaxed to achieve convergence from 2.5652400727115469e-05 to 2.5652400727116469e-05 seconds.
Warning: Simulation tolerance relaxed to achieve convergence from 2.5652403555596029e-05 to 2.5652403555597028e-05 seconds.
Warning: Simulation tolerance relaxed to achieve convergence from 2.5682828275946930e-05 to 2.5682828275947929e-05 seconds.
Warning: Simulation tolerance relaxed to achieve convergence from 2.5705782923125001e-05 to 2.5705782923126001e-05 seconds.
Warning: Simulation tolerance relaxed to achieve convergence from 2.5705792801318025e-05 to 2.5705792801319025e-05 seconds.
Warning: Simulation tolerance relaxed to achieve convergence from 2.5705794499332852e-05 to 2.5705794499333851e-05 seconds.
Warning: Simulation tolerance relaxed to achieve convergence from 2.5709875777929229e-05 to 2.5709875777930228e-05 seconds.
Warning: Simulation tolerance relaxed to achieve convergence from 2.5709883402217657e-05 to 2.5709883402218656e-05 seconds.
Warning: Simulation tolerance relaxed to achieve convergence from 2.5710908684549727e-05 to 2.5710908684550727e-05 seconds.
Warning: Simulation tolerance relaxed to achieve convergence from 2.5711919796605602e-05 to 2.5711919796606601e-05 seconds.
Warning: Simulation tolerance relaxed to achieve convergence from 2.5711920978633720e-05 to 2.5711920978634720e-05 seconds.
Warning: Simulation tolerance relaxed to achieve convergence from 2.5711921703630792e-05 to 2.5711921703631792e-05 seconds.
Warning: Simulation tolerance relaxed to achieve convergence from 2.5711925889749241e-05 to 2.5711925889750240e-05 seconds.
Warning: Simulation tolerance relaxed to achieve convergence from 2.5711925889762238e-05 to 2.5711925889763237e-05 seconds.
Warning: Simulation tolerance relaxed to achieve convergence from 2.5711993656869193e-05 to 2.5711993656870193e-05 seconds.
Warning: Simulation tolerance relaxed to achieve convergence from 2.5712434637288404e-05 to 2.5712434637289403e-05 seconds.
Warning: Simulation tolerance relaxed to achieve convergence from 2.5712907377226236e-05 to 2.5712907377227236e-05 seconds.
Warning: Simulation tolerance relaxed to achieve convergence from 2.5716086442771597e-05 to 2.5716086442772596e-05 seconds.
Warning: Simulation tolerance relaxed to achieve convergence from 2.5716475157937623e-05 to 2.5716475157938622e-05 seconds.
Warning: Simulation tolerance relaxed to achieve convergence from 2.5716517148283787e-05 to 2.5716517148284786e-05 seconds.
Warning: Simulation tolerance relaxed to achieve convergence from 2.5717644800396827e-05 to 2.5717644800397827e-05 seconds.
Warning: Simulation tolerance relaxed to achieve convergence from 2.5717655376000917e-05 to 2.5717655376001916e-05 seconds.
Warning: Simulation tolerance relaxed to achieve convergence from 2.5717657235326910e-05 to 2.5717657235327910e-05 seconds.
Warning: Simulation tolerance relaxed to achieve convergence from 2.5718563562367949e-05 to 2.5718563562368948e-05 seconds.
Warning: Simulation tolerance relaxed to achieve convergence from 2.5718563562368948e-05 to 2.5718563562369948e-05 seconds.
Warning: Simulation tolerance relaxed to achieve convergence from 2.5718563562369948e-05 to 2.5718563562370947e-05 seconds.
Warning: Simulation tolerance relaxed to achieve convergence from 2.5718563562370947e-05 to 2.5718563562371947e-05 seconds.
Warning: Simulation tolerance relaxed to achieve convergence from 2.5718563562371947e-05 to 2.5718563562372946e-05 seconds.
Warning: Simulation tolerance relaxed to achieve convergence from 2.5718563562372946e-05 to 2.5718563562373946e-05 seconds.
Warning: Simulation tolerance relaxed to achieve convergence from 2.5718563562373946e-05 to 2.5718563562374945e-05 seconds.
Warning: Simulation tolerance relaxed to achieve convergence from 2.5718563562374945e-05 to 2.5718563562375945e-05 seconds.
Warning: Simulation tolerance relaxed to achieve convergence from 2.5718563562375945e-05 to 2.5718563562376944e-05 seconds.
Warning: Simulation tolerance relaxed to achieve convergence from 2.5718563562376944e-05 to 2.5718563562377944e-05 seconds.
Warning: Simulation tolerance relaxed to achieve convergence from 2.5718563562377944e-05 to 2.5718563562378943e-05 seconds.
Warning: Simulation tolerance relaxed to achieve convergence from 2.5718563562378943e-05 to 2.5718563562379943e-05 seconds.
Warning: Simulation tolerance relaxed to achieve convergence from 2.5718563562379943e-05 to 2.5718563562380942e-05 seconds.
Warning: Simulation tolerance relaxed to achieve convergence from 2.5718563562380942e-05 to 2.5718563562381942e-05 seconds.
Warning: Simulation tolerance relaxed to achieve convergence from 2.5718563562381942e-05 to 2.5718563562382941e-05 seconds.
Warning: Simulation tolerance relaxed to achieve convergence from 2.5718563562382941e-05 to 2.5718563562383941e-05 seconds.
Warning: Simulation tolerance relaxed to achieve convergence from 2.5718563562383941e-05 to 2.5718563562384940e-05 seconds.
Warning: Simulation tolerance relaxed to achieve convergence from 2.5718563562384940e-05 to 2.5718563562385940e-05 seconds.
Warning: Simulation tolerance relaxed to achieve convergence from 2.5718563562385940e-05 to 2.5718563562386939e-05 seconds.
Warning: Simulation tolerance relaxed to achieve convergence from 2.5718563562386939e-05 to 2.5718563562387939e-05 seconds.
Warning: Simulation tolerance relaxed to achieve convergence from 2.5718563562387939e-05 to 2.5718563562388938e-05 seconds.
Warning: Simulation tolerance relaxed to achieve convergence from 2.5718563562388938e-05 to 2.5718563562389938e-05 seconds.
Warning: Simulation tolerance relaxed to achieve convergence from 2.5718563562389938e-05 to 2.5718563562390937e-05 seconds.
Warning: Simulation tolerance relaxed to achieve convergence from 2.5718563562390937e-05 to 2.5718563562391937e-05 seconds.
Warning: Simulation tolerance relaxed to achieve convergence from 2.5718563562391937e-05 to 2.5718563562392936e-05 seconds.
Warning: Simulation tolerance relaxed to achieve convergence from 2.5718563562392936e-05 to 2.5718563562393936e-05 seconds.
Warning: Simulation tolerance relaxed to achieve convergence from 2.5718563562393936e-05 to 2.5718563562394935e-05 seconds.
Warning: Simulation tolerance relaxed to achieve convergence from 2.5718563562394935e-05 to 2.5718563562395935e-05 seconds.
Warning: Simulation tolerance relaxed to achieve convergence from 2.5718563562395935e-05 to 2.5718563562396934e-05 seconds.
Warning: Simulation tolerance relaxed to achieve convergence from 2.5718563562396934e-05 to 2.5718563562397934e-05 seconds.
Warning: Simulation tolerance relaxed to achieve convergence from 2.5718563562397934e-05 to 2.5718563562398933e-05 seconds.
Warning: Simulation tolerance relaxed to achieve convergence from 2.5718563562398933e-05 to 2.5718563562399933e-05 seconds.
Warning: Simulation tolerance relaxed to achieve convergence from 2.5718563562399933e-05 to 2.5718563562400932e-05 seconds.
Warning: Simulation tolerance relaxed to achieve convergence from 2.5718563562400932e-05 to 2.5718563562401932e-05 seconds.
Warning: Simulation tolerance relaxed to achieve convergence from 2.5718563562401932e-05 to 2.5718563562402931e-05 seconds.
Warning: Simulation tolerance relaxed to achieve convergence from 2.5718563562402931e-05 to 2.5718563562403931e-05 seconds.
Warning: Simulation tolerance relaxed to achieve convergence from 2.5718563562403931e-05 to 2.5718563562404930e-05 seconds.
Warning: Simulation tolerance relaxed to achieve convergence from 2.5718563562404930e-05 to 2.5718563562405930e-05 seconds.
Warning: Simulation tolerance relaxed to achieve convergence from 2.5718563562405930e-05 to 2.5718563562406929e-05 seconds.
Warning: Simulation tolerance relaxed to achieve convergence from 2.5718563562406929e-05 to 2.5718563562407929e-05 seconds.
Warning: Simulation tolerance relaxed to achieve convergence from 2.5718563562407929e-05 to 2.5718563562408928e-05 seconds.
Warning: Simulation tolerance relaxed to achieve convergence from 2.5718563562408928e-05 to 2.5718563562409928e-05 seconds.
Warning: Simulation tolerance relaxed to achieve convergence from 2.5718563562409928e-05 to 2.5718563562410927e-05 seconds.
Warning: Simulation tolerance relaxed to achieve convergence from 2.5718563562410927e-05 to 2.5718563562411927e-05 seconds.
Warning: Simulation tolerance relaxed to achieve convergence from 2.5718563562411927e-05 to 2.5718563562412926e-05 seconds.
Warning: Simulation tolerance relaxed to achieve convergence from 2.5718563562412926e-05 to 2.5718563562413926e-05 seconds.
Warning: Simulation tolerance relaxed to achieve convergence from 2.5718563562413926e-05 to 2.5718563562414925e-05 seconds.
Warning: Simulation tolerance relaxed to achieve convergence from 2.5718563562414925e-05 to 2.5718563562415925e-05 seconds.
Warning: Simulation tolerance relaxed to achieve convergence from 2.5718563562415925e-05 to 2.5718563562416924e-05 seconds.
Warning: Simulation tolerance relaxed to achieve convergence from 2.5718563562416924e-05 to 2.5718563562417924e-05 seconds.
Warning: Simulation tolerance relaxed to achieve convergence from 2.5718563562417924e-05 to 2.5718563562418923e-05 seconds.
Warning: Simulation tolerance relaxed to achieve convergence from 2.5718563562418923e-05 to 2.5718563562419923e-05 seconds.
Warning: Simulation tolerance relaxed to achieve convergence from 2.5718563562419923e-05 to 2.5718563562420922e-05 seconds.
Warning: Simulation tolerance relaxed to achieve convergence from 2.5718563562420922e-05 to 2.5718563562421922e-05 seconds.
Warning: Simulation tolerance relaxed to achieve convergence from 2.5718563562421922e-05 to 2.5718563562422921e-05 seconds.
Warning: Simulation tolerance relaxed to achieve convergence from 2.5718563562422921e-05 to 2.5718563562423921e-05 seconds.
Warning: Simulation tolerance relaxed to achieve convergence from 2.5718563562423921e-05 to 2.5718563562424920e-05 seconds.
Warning: Simulation tolerance relaxed to achieve convergence from 2.5718563562424920e-05 to 2.5718563562425920e-05 seconds.
Warning: Simulation tolerance relaxed to achieve convergence from 2.5718563562425920e-05 to 2.5718563562426919e-05 seconds.
Warning: Simulation tolerance relaxed to achieve convergence from 2.5718563562426919e-05 to 2.5718563562427919e-05 seconds.
Warning: Simulation tolerance relaxed to achieve convergence from 2.5718563562427919e-05 to 2.5718563562428918e-05 seconds.
Warning: Simulation tolerance relaxed to achieve convergence from 2.5718563562428918e-05 to 2.5718563562429918e-05 seconds.
Warning: Simulation tolerance relaxed to achieve convergence from 2.5718563562429918e-05 to 2.5718563562430917e-05 seconds.
Warning: Simulation tolerance relaxed to achieve convergence from 2.5718563562430917e-05 to 2.5718563562431917e-05 seconds.
Warning: Simulation tolerance relaxed to achieve convergence from 2.5718563562431917e-05 to 2.5718563562432916e-05 seconds.
Warning: Simulation tolerance relaxed to achieve convergence from 2.5718563562432916e-05 to 2.5718563562433916e-05 seconds.
Warning: Simulation tolerance relaxed to achieve convergence from 2.5718563562433916e-05 to 2.5718563562434915e-05 seconds.
Warning: Simulation tolerance relaxed to achieve convergence from 2.5718563562434915e-05 to 2.5718563562435915e-05 seconds.
Warning: Simulation tolerance relaxed to achieve convergence from 2.5718563562435915e-05 to 2.5718563562436914e-05 seconds.
Warning: Simulation tolerance relaxed to achieve convergence from 2.5718563562436914e-05 to 2.5718563562437914e-05 seconds.
Warning: Simulation tolerance relaxed to achieve convergence from 2.5718563562437914e-05 to 2.5718563562438913e-05 seconds.
Warning: Simulation tolerance relaxed to achieve convergence from 2.5718563562438913e-05 to 2.5718563562439913e-05 seconds.
Warning: Simulation tolerance relaxed to achieve convergence from 2.5718563562439913e-05 to 2.5718563562440912e-05 seconds.
Warning: Simulation tolerance relaxed to achieve convergence from 2.5718563562440912e-05 to 2.5718563562441912e-05 seconds.
Warning: Simulation tolerance relaxed to achieve convergence from 2.5718563562441912e-05 to 2.5718563562442911e-05 seconds.
Warning: Simulation tolerance relaxed to achieve convergence from 2.5718563562442911e-05 to 2.5718563562443911e-05 seconds.
Warning: Simulation tolerance relaxed to achieve convergence from 2.5718563562443911e-05 to 2.5718563562444910e-05 seconds.
Warning: Simulation tolerance relaxed to achieve convergence from 2.5718563562444910e-05 to 2.5718563562445910e-05 seconds.
Warning: Simulation tolerance relaxed to achieve convergence from 2.5718563562445910e-05 to 2.5718563562446909e-05 seconds.
Warning: Simulation tolerance relaxed to achieve convergence from 2.5718563562446909e-05 to 2.5718563562447909e-05 seconds.
Warning: Simulation tolerance relaxed to achieve convergence from 2.5718563562447909e-05 to 2.5718563562448908e-05 seconds.
Warning: Simulation tolerance relaxed to achieve convergence from 2.5718563562448908e-05 to 2.5718563562449908e-05 seconds.
Warning: Simulation tolerance relaxed to achieve convergence from 2.5718563562449908e-05 to 2.5718563562450907e-05 seconds.
Warning: Simulation tolerance relaxed to achieve convergence from 2.5718563562450907e-05 to 2.5718563562451907e-05 seconds.
Warning: Simulation tolerance relaxed to achieve convergence from 2.5718563562451907e-05 to 2.5718563562452906e-05 seconds.
Warning: Simulation tolerance relaxed to achieve convergence from 2.5718563562452906e-05 to 2.5718563562453906e-05 seconds.
Warning: Simulation tolerance relaxed to achieve convergence from 2.5718563562453906e-05 to 2.5718563562454905e-05 seconds.
Warning: Simulation tolerance relaxed to achieve convergence from 2.5718563562454905e-05 to 2.5718563562455905e-05 seconds.
Warning: Simulation tolerance relaxed to achieve convergence from 2.5718563562455905e-05 to 2.5718563562456904e-05 seconds.
Warning: Simulation tolerance relaxed to achieve convergence from 2.5718563562456904e-05 to 2.5718563562457904e-05 seconds.
Warning: Simulation tolerance relaxed to achieve convergence from 2.5718563562457904e-05 to 2.5718563562458903e-05 seconds.
Warning: Simulation tolerance relaxed to achieve convergence from 2.5718563562458903e-05 to 2.5718563562459903e-05 seconds.
Warning: Simulation tolerance relaxed to achieve convergence from 2.5718563562459903e-05 to 2.5718563562460902e-05 seconds.
Warning: Simulation tolerance relaxed to achieve convergence from 2.5718563562460902e-05 to 2.5718563562461902e-05 seconds.
Warning: Simulation tolerance relaxed to achieve convergence from 2.5718563562461902e-05 to 2.5718563562462901e-05 seconds.
Warning: Simulation tolerance relaxed to achieve convergence from 2.5718563562462901e-05 to 2.5718563562463901e-05 seconds.
Warning: Simulation tolerance relaxed to achieve convergence from 2.5718563562463901e-05 to 2.5718563562464900e-05 seconds.
Warning: Simulation tolerance relaxed to achieve convergence from 2.5718563562464900e-05 to 2.5718563562465900e-05 seconds.
Warning: Simulation tolerance relaxed to achieve convergence from 2.5718563562465900e-05 to 2.5718563562466899e-05 seconds.
Warning: Simulation tolerance relaxed to achieve convergence from 2.5718563562466899e-05 to 2.5718563562467899e-05 seconds.
Warning: Simulation tolerance relaxed to achieve convergence from 2.5718563562467899e-05 to 2.5718563562468898e-05 seconds.
Warning: Simulation tolerance relaxed to achieve convergence from 2.5718563562468898e-05 to 2.5718563562469898e-05 seconds.
Warning: Simulation tolerance relaxed to achieve convergence from 2.5718563562469898e-05 to 2.5718563562470897e-05 seconds.
Warning: Simulation tolerance relaxed to achieve convergence from 2.5718563562470897e-05 to 2.5718563562471897e-05 seconds.
Warning: Simulation tolerance relaxed to achieve convergence from 2.5718563562471897e-05 to 2.5718563562472896e-05 seconds.
Warning: Simulation tolerance relaxed to achieve convergence from 2.5718563562474895e-05 to 2.5718563562475895e-05 seconds.
Warning: Simulation tolerance relaxed to achieve convergence from 2.5718563562476894e-05 to 2.5718563562477894e-05 seconds.
Warning: Simulation tolerance relaxed to achieve convergence from 2.5718563562477894e-05 to 2.5718563562478893e-05 seconds.
Warning: Simulation tolerance relaxed to achieve convergence from 2.5718563562478893e-05 to 2.5718563562479893e-05 seconds.
Warning: Simulation tolerance relaxed to achieve convergence from 2.5718563562479893e-05 to 2.5718563562480892e-05 seconds.
Warning: Simulation tolerance relaxed to achieve convergence from 2.5718563562480892e-05 to 2.5718563562481892e-05 seconds.
Warning: Simulation tolerance relaxed to achieve convergence from 2.5718563562481892e-05 to 2.5718563562482891e-05 seconds.
Warning: Simulation tolerance relaxed to achieve convergence from 2.5718563562482891e-05 to 2.5718563562483891e-05 seconds.
Warning: Simulation tolerance relaxed to achieve convergence from 2.5718563562483891e-05 to 2.5718563562484890e-05 seconds.
Warning: Simulation tolerance relaxed to achieve convergence from 2.5718563562484890e-05 to 2.5718563562485890e-05 seconds.
Warning: Simulation tolerance relaxed to achieve convergence from 2.5718563562485890e-05 to 2.5718563562486889e-05 seconds.
Warning: Simulation tolerance relaxed to achieve convergence from 2.5718563562486889e-05 to 2.5718563562487889e-05 seconds.
Warning: Simulation tolerance relaxed to achieve convergence from 2.5718563562487889e-05 to 2.5718563562488888e-05 seconds.
Warning: Simulation tolerance relaxed to achieve convergence from 2.5718563562488888e-05 to 2.5718563562489888e-05 seconds.
Warning: Simulation tolerance relaxed to achieve convergence from 2.5718563562489888e-05 to 2.5718563562490887e-05 seconds.
Warning: Simulation tolerance relaxed to achieve convergence from 2.5718563562490887e-05 to 2.5718563562491887e-05 seconds.
Warning: Simulation tolerance relaxed to achieve convergence from 2.5718563562491887e-05 to 2.5718563562492886e-05 seconds.
Warning: Simulation tolerance relaxed to achieve convergence from 2.5718563562492886e-05 to 2.5718563562493886e-05 seconds.
Warning: Simulation tolerance relaxed to achieve convergence from 2.5718563562493886e-05 to 2.5718563562494885e-05 seconds.
Warning: Simulation tolerance relaxed to achieve convergence from 2.5718563562494885e-05 to 2.5718563562495885e-05 seconds.
Warning: Simulation tolerance relaxed to achieve convergence from 2.5718563562495885e-05 to 2.5718563562496884e-05 seconds.
Warning: Simulation tolerance relaxed to achieve convergence from 2.5718563562496884e-05 to 2.5718563562497884e-05 seconds.
Warning: Simulation tolerance relaxed to achieve convergence from 2.5718563562497884e-05 to 2.5718563562498883e-05 seconds.
Warning: Simulation tolerance relaxed to achieve convergence from 2.5718563562498883e-05 to 2.5718563562499883e-05 seconds.
Warning: Simulation tolerance relaxed to achieve convergence from 2.5718563562499883e-05 to 2.5718563562500882e-05 seconds.
Warning: Simulation tolerance relaxed to achieve convergence from 2.5718563562500882e-05 to 2.5718563562501882e-05 seconds.
Warning: Simulation tolerance relaxed to achieve convergence from 2.5718563562501882e-05 to 2.5718563562502881e-05 seconds.
Warning: Simulation tolerance relaxed to achieve convergence from 2.5718563562502881e-05 to 2.5718563562503881e-05 seconds.
Warning: Simulation tolerance relaxed to achieve convergence from 2.5718563562503881e-05 to 2.5718563562504880e-05 seconds.
Warning: Simulation tolerance relaxed to achieve convergence from 2.5718563562504880e-05 to 2.5718563562505880e-05 seconds.
Warning: Simulation tolerance relaxed to achieve convergence from 2.5718563562505880e-05 to 2.5718563562506879e-05 seconds.
Warning: Simulation tolerance relaxed to achieve convergence from 2.5718563562506879e-05 to 2.5718563562507879e-05 seconds.
Warning: Simulation tolerance relaxed to achieve convergence from 2.5718563562507879e-05 to 2.5718563562508878e-05 seconds.
Warning: Simulation tolerance relaxed to achieve convergence from 2.5718563562508878e-05 to 2.5718563562509878e-05 seconds.
Warning: Simulation tolerance relaxed to achieve convergence from 2.5718563562509878e-05 to 2.5718563562510877e-05 seconds.
Warning: Simulation tolerance relaxed to achieve convergence from 2.5718563562510877e-05 to 2.5718563562511877e-05 seconds.
Warning: Simulation tolerance relaxed to achieve convergence from 2.5718563562511877e-05 to 2.5718563562512876e-05 seconds.
Warning: Simulation tolerance relaxed to achieve convergence from 2.5718563562512876e-05 to 2.5718563562513876e-05 seconds.
Warning: Simulation tolerance relaxed to achieve convergence from 2.5718563562513876e-05 to 2.5718563562514875e-05 seconds.
Warning: Simulation tolerance relaxed to achieve convergence from 2.5718563562514875e-05 to 2.5718563562515875e-05 seconds.
Warning: Simulation tolerance relaxed to achieve convergence from 2.5718563562515875e-05 to 2.5718563562516874e-05 seconds.
Warning: Simulation tolerance relaxed to achieve convergence from 2.5718563562516874e-05 to 2.5718563562517874e-05 seconds.
Warning: Simulation tolerance relaxed to achieve convergence from 2.5718563562517874e-05 to 2.5718563562518873e-05 seconds.
Warning: Simulation tolerance relaxed to achieve convergence from 2.5718563562518873e-05 to 2.5718563562519873e-05 seconds.
Warning: Simulation tolerance relaxed to achieve convergence from 2.5718563562519873e-05 to 2.5718563562520872e-05 seconds.
Warning: Simulation tolerance relaxed to achieve convergence from 2.5718563562520872e-05 to 2.5718563562521872e-05 seconds.
Warning: Simulation tolerance relaxed to achieve convergence from 2.5718563562521872e-05 to 2.5718563562522871e-05 seconds.
Warning: Simulation tolerance relaxed to achieve convergence from 2.5718563562522871e-05 to 2.5718563562523871e-05 seconds.
Warning: Simulation tolerance relaxed to achieve convergence from 2.5718563562523871e-05 to 2.5718563562524870e-05 seconds.
Warning: Simulation tolerance relaxed to achieve convergence from 2.5718563562524870e-05 to 2.5718563562525870e-05 seconds.
Warning: Simulation tolerance relaxed to achieve convergence from 2.5718563562525870e-05 to 2.5718563562526869e-05 seconds.
Warning: Simulation tolerance relaxed to achieve convergence from 2.5718563562526869e-05 to 2.5718563562527869e-05 seconds.
Warning: Simulation tolerance relaxed to achieve convergence from 2.5718563562527869e-05 to 2.5718563562528868e-05 seconds.
Warning: Simulation tolerance relaxed to achieve convergence from 2.5718563562528868e-05 to 2.5718563562529868e-05 seconds.
Warning: Simulation tolerance relaxed to achieve convergence from 2.5718563562529868e-05 to 2.5718563562530867e-05 seconds.
Warning: Simulation tolerance relaxed to achieve convergence from 2.5718563562530867e-05 to 2.5718563562531867e-05 seconds.
Warning: Simulation tolerance relaxed to achieve convergence from 2.5718563562531867e-05 to 2.5718563562532866e-05 seconds.
Warning: Simulation tolerance relaxed to achieve convergence from 2.5718563562534865e-05 to 2.5718563562535865e-05 seconds.
Warning: Simulation tolerance relaxed to achieve convergence from 2.5718563562535865e-05 to 2.5718563562536864e-05 seconds.
Warning: Simulation tolerance relaxed to achieve convergence from 2.5718563562536864e-05 to 2.5718563562537864e-05 seconds.
Warning: Simulation tolerance relaxed to achieve convergence from 2.5718563562537864e-05 to 2.5718563562538863e-05 seconds.
Warning: Simulation tolerance relaxed to achieve convergence from 2.5718563562538863e-05 to 2.5718563562539863e-05 seconds.
Warning: Simulation tolerance relaxed to achieve convergence from 2.5718563562539863e-05 to 2.5718563562540862e-05 seconds.
Warning: Simulation tolerance relaxed to achieve convergence from 2.5718563562540862e-05 to 2.5718563562541862e-05 seconds.
Warning: Simulation tolerance relaxed to achieve convergence from 2.5718563562541862e-05 to 2.5718563562542861e-05 seconds.
Warning: Simulation tolerance relaxed to achieve convergence from 2.5718563562542861e-05 to 2.5718563562543861e-05 seconds.
Warning: Simulation tolerance relaxed to achieve convergence from 2.5718563562543861e-05 to 2.5718563562544860e-05 seconds.
Warning: Simulation tolerance relaxed to achieve convergence from 2.5718563562544860e-05 to 2.5718563562545860e-05 seconds.
Warning: Simulation tolerance relaxed to achieve convergence from 2.5718563562545860e-05 to 2.5718563562546859e-05 seconds.
Warning: Simulation tolerance relaxed to achieve convergence from 2.5718563562546859e-05 to 2.5718563562547859e-05 seconds.
Warning: Simulation tolerance relaxed to achieve convergence from 2.5718563562547859e-05 to 2.5718563562548858e-05 seconds.
Warning: Simulation tolerance relaxed to achieve convergence from 2.5718563562548858e-05 to 2.5718563562549858e-05 seconds.
Warning: Simulation tolerance relaxed to achieve convergence from 2.5718563562549858e-05 to 2.5718563562550857e-05 seconds.
Warning: Simulation tolerance relaxed to achieve convergence from 2.5718563562550857e-05 to 2.5718563562551857e-05 seconds.
Warning: Simulation tolerance relaxed to achieve convergence from 2.5718563562551857e-05 to 2.5718563562552856e-05 seconds.
Warning: Simulation tolerance relaxed to achieve convergence from 2.5718563562552856e-05 to 2.5718563562553856e-05 seconds.
Warning: Simulation tolerance relaxed to achieve convergence from 2.5718563562553856e-05 to 2.5718563562554855e-05 seconds.
Warning: Simulation tolerance relaxed to achieve convergence from 2.5718563562554855e-05 to 2.5718563562555855e-05 seconds.
Warning: Simulation tolerance relaxed to achieve convergence from 2.5718563562555855e-05 to 2.5718563562556854e-05 seconds.
Warning: Simulation tolerance relaxed to achieve convergence from 2.5718563562556854e-05 to 2.5718563562557854e-05 seconds.
Warning: Simulation tolerance relaxed to achieve convergence from 2.5718563562557854e-05 to 2.5718563562558853e-05 seconds.
Warning: Simulation tolerance relaxed to achieve convergence from 2.5718563562558853e-05 to 2.5718563562559853e-05 seconds.
Warning: Simulation tolerance relaxed to achieve convergence from 2.5718563562559853e-05 to 2.5718563562560852e-05 seconds.
Warning: Simulation tolerance relaxed to achieve convergence from 2.5718563562560852e-05 to 2.5718563562561852e-05 seconds.
Warning: Simulation tolerance relaxed to achieve convergence from 2.5718563562561852e-05 to 2.5718563562562851e-05 seconds.
Warning: Simulation tolerance relaxed to achieve convergence from 2.5718563562562851e-05 to 2.5718563562563851e-05 seconds.
Warning: Simulation tolerance relaxed to achieve convergence from 2.5718563562563851e-05 to 2.5718563562564850e-05 seconds.
Warning: Simulation tolerance relaxed to achieve convergence from 2.5718563562564850e-05 to 2.5718563562565850e-05 seconds.
Warning: Simulation tolerance relaxed to achieve convergence from 2.5718563562565850e-05 to 2.5718563562566849e-05 seconds.
Warning: Simulation tolerance relaxed to achieve convergence from 2.5718563562566849e-05 to 2.5718563562567849e-05 seconds.
Warning: Simulation tolerance relaxed to achieve convergence from 2.5718563562569848e-05 to 2.5718563562570847e-05 seconds.
Warning: Simulation tolerance relaxed to achieve convergence from 2.5718563562570847e-05 to 2.5718563562571847e-05 seconds.
Warning: Simulation tolerance relaxed to achieve convergence from 2.5718563562571847e-05 to 2.5718563562572846e-05 seconds.
Warning: Simulation tolerance relaxed to achieve convergence from 2.5718563562572846e-05 to 2.5718563562573846e-05 seconds.
Warning: Simulation tolerance relaxed to achieve convergence from 2.5718563562573846e-05 to 2.5718563562574845e-05 seconds.
Warning: Simulation tolerance relaxed to achieve convergence from 2.5718563562574845e-05 to 2.5718563562575845e-05 seconds.
Warning: Simulation tolerance relaxed to achieve convergence from 2.5718563562575845e-05 to 2.5718563562576844e-05 seconds.
Warning: Simulation tolerance relaxed to achieve convergence from 2.5718563562576844e-05 to 2.5718563562577844e-05 seconds.
Warning: Simulation tolerance relaxed to achieve convergence from 2.5718563562577844e-05 to 2.5718563562578843e-05 seconds.
Warning: Simulation tolerance relaxed to achieve convergence from 2.5718563562578843e-05 to 2.5718563562579843e-05 seconds.
Warning: Simulation tolerance relaxed to achieve convergence from 2.5718563562579843e-05 to 2.5718563562580842e-05 seconds.
Warning: Simulation tolerance relaxed to achieve convergence from 2.5718563562580842e-05 to 2.5718563562581842e-05 seconds.
Warning: Simulation tolerance relaxed to achieve convergence from 2.5718563562581842e-05 to 2.5718563562582841e-05 seconds.
Warning: Simulation tolerance relaxed to achieve convergence from 2.5718563562582841e-05 to 2.5718563562583841e-05 seconds.
Warning: Simulation tolerance relaxed to achieve convergence from 2.5718563562583841e-05 to 2.5718563562584840e-05 seconds.
Warning: Simulation tolerance relaxed to achieve convergence from 2.5718563562584840e-05 to 2.5718563562585840e-05 seconds.
Warning: Simulation tolerance relaxed to achieve convergence from 2.5718563562585840e-05 to 2.5718563562586839e-05 seconds.
Warning: Simulation tolerance relaxed to achieve convergence from 2.5718563562586839e-05 to 2.5718563562587839e-05 seconds.
Warning: Simulation tolerance relaxed to achieve convergence from 2.5718563562587839e-05 to 2.5718563562588838e-05 seconds.
Warning: Simulation tolerance relaxed to achieve convergence from 2.5718563562588838e-05 to 2.5718563562589838e-05 seconds.
Warning: Simulation tolerance relaxed to achieve convergence from 2.5718563562589838e-05 to 2.5718563562590837e-05 seconds.
Warning: Simulation tolerance relaxed to achieve convergence from 2.5718563562590837e-05 to 2.5718563562591837e-05 seconds.
Warning: Simulation tolerance relaxed to achieve convergence from 2.5718563562591837e-05 to 2.5718563562592836e-05 seconds.
Warning: Simulation tolerance relaxed to achieve convergence from 2.5718563562592836e-05 to 2.5718563562593836e-05 seconds.
Warning: Simulation tolerance relaxed to achieve convergence from 2.5718563562593836e-05 to 2.5718563562594835e-05 seconds.
Warning: Simulation tolerance relaxed to achieve convergence from 2.5718563562594835e-05 to 2.5718563562595835e-05 seconds.
Warning: Simulation tolerance relaxed to achieve convergence from 2.5718563562595835e-05 to 2.5718563562596834e-05 seconds.
Warning: Simulation tolerance relaxed to achieve convergence from 2.5718563562596834e-05 to 2.5718563562597834e-05 seconds.
Warning: Simulation tolerance relaxed to achieve convergence from 2.5718563562597834e-05 to 2.5718563562598833e-05 seconds.
Warning: Simulation tolerance relaxed to achieve convergence from 2.5718563562598833e-05 to 2.5718563562599833e-05 seconds.
Warning: Simulation tolerance relaxed to achieve convergence from 2.5718563562599833e-05 to 2.5718563562600832e-05 seconds.
Warning: Simulation tolerance relaxed to achieve convergence from 2.5718563562600832e-05 to 2.5718563562601832e-05 seconds.
Warning: Simulation tolerance relaxed to achieve convergence from 2.5718563562601832e-05 to 2.5718563562602831e-05 seconds.
Warning: Simulation tolerance relaxed to achieve convergence from 2.5718563562602831e-05 to 2.5718563562603831e-05 seconds.
Warning: Simulation tolerance relaxed to achieve convergence from 2.5718563562603831e-05 to 2.5718563562604830e-05 seconds.
Warning: Simulation tolerance relaxed to achieve convergence from 2.5718563562604830e-05 to 2.5718563562605830e-05 seconds.
Warning: Simulation tolerance relaxed to achieve convergence from 2.5718563562605830e-05 to 2.5718563562606829e-05 seconds.
Warning: Simulation tolerance relaxed to achieve convergence from 2.5718563562606829e-05 to 2.5718563562607829e-05 seconds.
Warning: Simulation tolerance relaxed to achieve convergence from 2.5718563562607829e-05 to 2.5718563562608828e-05 seconds.
Warning: Simulation tolerance relaxed to achieve convergence from 2.5718563562608828e-05 to 2.5718563562609828e-05 seconds.
Warning: Simulation tolerance relaxed to achieve convergence from 2.5718563562609828e-05 to 2.5718563562610827e-05 seconds.
Warning: Simulation tolerance relaxed to achieve convergence from 2.5718563562610827e-05 to 2.5718563562611827e-05 seconds.
Warning: Simulation tolerance relaxed to achieve convergence from 2.5718563562611827e-05 to 2.5718563562612826e-05 seconds.
Warning: Simulation tolerance relaxed to achieve convergence from 2.5718563562612826e-05 to 2.5718563562613826e-05 seconds.
Warning: Simulation tolerance relaxed to achieve convergence from 2.5718563562613826e-05 to 2.5718563562614825e-05 seconds.
Warning: Simulation tolerance relaxed to achieve convergence from 2.5718563562614825e-05 to 2.5718563562615825e-05 seconds.
Warning: Simulation tolerance relaxed to achieve convergence from 2.5718563562615825e-05 to 2.5718563562616824e-05 seconds.
Warning: Simulation tolerance relaxed to achieve convergence from 2.5718563562616824e-05 to 2.5718563562617824e-05 seconds.
Warning: Simulation tolerance relaxed to achieve convergence from 2.5718563562617824e-05 to 2.5718563562618823e-05 seconds.
Warning: Simulation tolerance relaxed to achieve convergence from 2.5718563562618823e-05 to 2.5718563562619823e-05 seconds.
Warning: Simulation tolerance relaxed to achieve convergence from 2.5718563562619823e-05 to 2.5718563562620822e-05 seconds.
Warning: Simulation tolerance relaxed to achieve convergence from 2.5718563562620822e-05 to 2.5718563562621822e-05 seconds.
Warning: Simulation tolerance relaxed to achieve convergence from 2.5718563562621822e-05 to 2.5718563562622821e-05 seconds.
Warning: Simulation tolerance relaxed to achieve convergence from 2.5718563562622821e-05 to 2.5718563562623821e-05 seconds.
Warning: Simulation tolerance relaxed to achieve convergence from 2.5718563562623821e-05 to 2.5718563562624820e-05 seconds.
Warning: Simulation tolerance relaxed to achieve convergence from 2.5718563562624820e-05 to 2.5718563562625820e-05 seconds.
Warning: Simulation tolerance relaxed to achieve convergence from 2.5718563562625820e-05 to 2.5718563562626819e-05 seconds.
Warning: Simulation tolerance relaxed to achieve convergence from 2.5718563562626819e-05 to 2.5718563562627819e-05 seconds.
Warning: Simulation tolerance relaxed to achieve convergence from 2.5718563562627819e-05 to 2.5718563562628818e-05 seconds.
Warning: Simulation tolerance relaxed to achieve convergence from 2.5718563562628818e-05 to 2.5718563562629818e-05 seconds.
Warning: Simulation tolerance relaxed to achieve convergence from 2.5718563562629818e-05 to 2.5718563562630817e-05 seconds.
Warning: Simulation tolerance relaxed to achieve convergence from 2.5718563562630817e-05 to 2.5718563562631817e-05 seconds.
Warning: Simulation tolerance relaxed to achieve convergence from 2.5718563562631817e-05 to 2.5718563562632816e-05 seconds.
Warning: Simulation tolerance relaxed to achieve convergence from 2.5718563562632816e-05 to 2.5718563562633816e-05 seconds.
Warning: Simulation tolerance relaxed to achieve convergence from 2.5718563562633816e-05 to 2.5718563562634815e-05 seconds.
Warning: Simulation tolerance relaxed to achieve convergence from 2.5718563562634815e-05 to 2.5718563562635815e-05 seconds.
Warning: Simulation tolerance relaxed to achieve convergence from 2.5718563562635815e-05 to 2.5718563562636814e-05 seconds.
Warning: Simulation tolerance relaxed to achieve convergence from 2.5718563562636814e-05 to 2.5718563562637814e-05 seconds.
Warning: Simulation tolerance relaxed to achieve convergence from 2.5718563562637814e-05 to 2.5718563562638813e-05 seconds.
Warning: Simulation tolerance relaxed to achieve convergence from 2.5718563562638813e-05 to 2.5718563562639813e-05 seconds.
Warning: Simulation tolerance relaxed to achieve convergence from 2.5718563562639813e-05 to 2.5718563562640812e-05 seconds.
Warning: Simulation tolerance relaxed to achieve convergence from 2.5718563562640812e-05 to 2.5718563562641812e-05 seconds.
Warning: Simulation tolerance relaxed to achieve convergence from 2.5718563562641812e-05 to 2.5718563562642811e-05 seconds.
Warning: Simulation tolerance relaxed to achieve convergence from 2.5718563562642811e-05 to 2.5718563562643811e-05 seconds.
Warning: Simulation tolerance relaxed to achieve convergence from 2.5718563562643811e-05 to 2.5718563562644810e-05 seconds.
Warning: Simulation tolerance relaxed to achieve convergence from 2.5718563562644810e-05 to 2.5718563562645810e-05 seconds.
Warning: Simulation tolerance relaxed to achieve convergence from 2.5718563562645810e-05 to 2.5718563562646809e-05 seconds.
Warning: Simulation tolerance relaxed to achieve convergence from 2.5718563562646809e-05 to 2.5718563562647809e-05 seconds.
Warning: Simulation tolerance relaxed to achieve convergence from 2.5718563562647809e-05 to 2.5718563562648808e-05 seconds.
Warning: Simulation tolerance relaxed to achieve convergence from 2.5718563562648808e-05 to 2.5718563562649808e-05 seconds.
Warning: Simulation tolerance relaxed to achieve convergence from 2.5718563562649808e-05 to 2.5718563562650807e-05 seconds.
Warning: Simulation tolerance relaxed to achieve convergence from 2.5718563562650807e-05 to 2.5718563562651807e-05 seconds.
Warning: Simulation tolerance relaxed to achieve convergence from 2.5718563562651807e-05 to 2.5718563562652806e-05 seconds.
Warning: Simulation tolerance relaxed to achieve convergence from 2.5718563562652806e-05 to 2.5718563562653806e-05 seconds.
Warning: Simulation tolerance relaxed to achieve convergence from 2.5718563562653806e-05 to 2.5718563562654805e-05 seconds.
Warning: Simulation tolerance relaxed to achieve convergence from 2.5718563562654805e-05 to 2.5718563562655805e-05 seconds.
Warning: Simulation tolerance relaxed to achieve convergence from 2.5718563562655805e-05 to 2.5718563562656804e-05 seconds.
Warning: Simulation tolerance relaxed to achieve convergence from 2.5718563562656804e-05 to 2.5718563562657804e-05 seconds.
Warning: Simulation tolerance relaxed to achieve convergence from 2.5718563562657804e-05 to 2.5718563562658803e-05 seconds.
Warning: Simulation tolerance relaxed to achieve convergence from 2.5718563562658803e-05 to 2.5718563562659803e-05 seconds.
Warning: Simulation tolerance relaxed to achieve convergence from 2.5718563562659803e-05 to 2.5718563562660802e-05 seconds.
Warning: Simulation tolerance relaxed to achieve convergence from 2.5718563562660802e-05 to 2.5718563562661802e-05 seconds.
Warning: Simulation tolerance relaxed to achieve convergence from 2.5718563562661802e-05 to 2.5718563562662801e-05 seconds.
Warning: Simulation tolerance relaxed to achieve convergence from 2.5718563562662801e-05 to 2.5718563562663801e-05 seconds.
Warning: Simulation tolerance relaxed to achieve convergence from 2.5718563562663801e-05 to 2.5718563562664800e-05 seconds.
Warning: Simulation tolerance relaxed to achieve convergence from 2.5718563562664800e-05 to 2.5718563562665800e-05 seconds.
Warning: Simulation tolerance relaxed to achieve convergence from 2.5718563562665800e-05 to 2.5718563562666799e-05 seconds.
Warning: Simulation tolerance relaxed to achieve convergence from 2.5718563562666799e-05 to 2.5718563562667799e-05 seconds.
Warning: Simulation tolerance relaxed to achieve convergence from 2.5718563562667799e-05 to 2.5718563562668798e-05 seconds.
Warning: Simulation tolerance relaxed to achieve convergence from 2.5718563562668798e-05 to 2.5718563562669798e-05 seconds.
Warning: Simulation tolerance relaxed to achieve convergence from 2.5718563562669798e-05 to 2.5718563562670797e-05 seconds.
Warning: Simulation tolerance relaxed to achieve convergence from 2.5718563562670797e-05 to 2.5718563562671797e-05 seconds.
Warning: Simulation tolerance relaxed to achieve convergence from 2.5718563562671797e-05 to 2.5718563562672796e-05 seconds.
Warning: Simulation tolerance relaxed to achieve convergence from 2.5718563562672796e-05 to 2.5718563562673796e-05 seconds.
Warning: Simulation tolerance relaxed to achieve convergence from 2.5718563562673796e-05 to 2.5718563562674795e-05 seconds.
Warning: Simulation tolerance relaxed to achieve convergence from 2.5718563562674795e-05 to 2.5718563562675795e-05 seconds.
Warning: Simulation tolerance relaxed to achieve convergence from 2.5718563562675795e-05 to 2.5718563562676794e-05 seconds.
Warning: Simulation tolerance relaxed to achieve convergence from 2.5718563562676794e-05 to 2.5718563562677794e-05 seconds.
Warning: Simulation tolerance relaxed to achieve convergence from 2.5718563562677794e-05 to 2.5718563562678793e-05 seconds.
Warning: Simulation tolerance relaxed to achieve convergence from 2.5718563562678793e-05 to 2.5718563562679793e-05 seconds.
Warning: Simulation tolerance relaxed to achieve convergence from 2.5718563562679793e-05 to 2.5718563562680792e-05 seconds.
Warning: Simulation tolerance relaxed to achieve convergence from 2.5718563562680792e-05 to 2.5718563562681792e-05 seconds.
Warning: Simulation tolerance relaxed to achieve convergence from 2.5718563562681792e-05 to 2.5718563562682791e-05 seconds.
Warning: Simulation tolerance relaxed to achieve convergence from 2.5718563562682791e-05 to 2.5718563562683791e-05 seconds.
Warning: Simulation tolerance relaxed to achieve convergence from 2.5718563562683791e-05 to 2.5718563562684790e-05 seconds.
Warning: Simulation tolerance relaxed to achieve convergence from 2.5718563562684790e-05 to 2.5718563562685790e-05 seconds.
Warning: Simulation tolerance relaxed to achieve convergence from 2.5718563562685790e-05 to 2.5718563562686789e-05 seconds.
Warning: Simulation tolerance relaxed to achieve convergence from 2.5718563562686789e-05 to 2.5718563562687789e-05 seconds.
Warning: Simulation tolerance relaxed to achieve convergence from 2.5718563562687789e-05 to 2.5718563562688788e-05 seconds.
Warning: Simulation tolerance relaxed to achieve convergence from 2.5718563562688788e-05 to 2.5718563562689788e-05 seconds.
Warning: Simulation tolerance relaxed to achieve convergence from 2.5718563562689788e-05 to 2.5718563562690787e-05 seconds.
Warning: Simulation tolerance relaxed to achieve convergence from 2.5718563562690787e-05 to 2.5718563562691787e-05 seconds.
Warning: Simulation tolerance relaxed to achieve convergence from 2.5718563562691787e-05 to 2.5718563562692786e-05 seconds.
Warning: Simulation tolerance relaxed to achieve convergence from 2.5718563562692786e-05 to 2.5718563562693786e-05 seconds.
Warning: Simulation tolerance relaxed to achieve convergence from 2.5718563562693786e-05 to 2.5718563562694785e-05 seconds.
Warning: Simulation tolerance relaxed to achieve convergence from 2.5718563562694785e-05 to 2.5718563562695785e-05 seconds.
Warning: Simulation tolerance relaxed to achieve convergence from 2.5718563562695785e-05 to 2.5718563562696784e-05 seconds.
Warning: Simulation tolerance relaxed to achieve convergence from 2.5718563562696784e-05 to 2.5718563562697783e-05 seconds.
Warning: Simulation tolerance relaxed to achieve convergence from 2.5718563562697783e-05 to 2.5718563562698783e-05 seconds.
Warning: Simulation tolerance relaxed to achieve convergence from 2.5718563562698783e-05 to 2.5718563562699782e-05 seconds.
Warning: Simulation tolerance relaxed to achieve convergence from 2.5718563562699782e-05 to 2.5718563562700782e-05 seconds.
Warning: Simulation tolerance relaxed to achieve convergence from 2.5718563562700782e-05 to 2.5718563562701781e-05 seconds.
Warning: Simulation tolerance relaxed to achieve convergence from 2.5718563562701781e-05 to 2.5718563562702781e-05 seconds.
Warning: Simulation tolerance relaxed to achieve convergence from 2.5718563562702781e-05 to 2.5718563562703780e-05 seconds.
Warning: Simulation tolerance relaxed to achieve convergence from 2.5718563562703780e-05 to 2.5718563562704780e-05 seconds.
Warning: Simulation tolerance relaxed to achieve convergence from 2.5718563562704780e-05 to 2.5718563562705779e-05 seconds.
Warning: Simulation tolerance relaxed to achieve convergence from 2.5718563562705779e-05 to 2.5718563562706779e-05 seconds.
Warning: Simulation tolerance relaxed to achieve convergence from 2.5718563562706779e-05 to 2.5718563562707778e-05 seconds.
Warning: Simulation tolerance relaxed to achieve convergence from 2.5718563562707778e-05 to 2.5718563562708778e-05 seconds.
Warning: Simulation tolerance relaxed to achieve convergence from 2.5718563562708778e-05 to 2.5718563562709777e-05 seconds.
Warning: Simulation tolerance relaxed to achieve convergence from 2.5718563562709777e-05 to 2.5718563562710777e-05 seconds.
Warning: Simulation tolerance relaxed to achieve convergence from 2.5718563562710777e-05 to 2.5718563562711776e-05 seconds.
Warning: Simulation tolerance relaxed to achieve convergence from 2.5718563562711776e-05 to 2.5718563562712776e-05 seconds.
Warning: Simulation tolerance relaxed to achieve convergence from 2.5718563562712776e-05 to 2.5718563562713775e-05 seconds.
Warning: Simulation tolerance relaxed to achieve convergence from 2.5718563562713775e-05 to 2.5718563562714775e-05 seconds.
Warning: Simulation tolerance relaxed to achieve convergence from 2.5718563562714775e-05 to 2.5718563562715774e-05 seconds.
Warning: Simulation tolerance relaxed to achieve convergence from 2.5718563562715774e-05 to 2.5718563562716774e-05 seconds.
Warning: Simulation tolerance relaxed to achieve convergence from 2.5718563562716774e-05 to 2.5718563562717773e-05 seconds.
Warning: Simulation tolerance relaxed to achieve convergence from 2.5718563562717773e-05 to 2.5718563562718773e-05 seconds.
Warning: Simulation tolerance relaxed to achieve convergence from 2.5718563562718773e-05 to 2.5718563562719772e-05 seconds.
Warning: Simulation tolerance relaxed to achieve convergence from 2.5718563562719772e-05 to 2.5718563562720772e-05 seconds.
Warning: Simulation tolerance relaxed to achieve convergence from 2.5718563562720772e-05 to 2.5718563562721771e-05 seconds.
Warning: Simulation tolerance relaxed to achieve convergence from 2.5718563562721771e-05 to 2.5718563562722771e-05 seconds.
Warning: Simulation tolerance relaxed to achieve convergence from 2.5718563562722771e-05 to 2.5718563562723770e-05 seconds.
Warning: Simulation tolerance relaxed to achieve convergence from 2.5718563562723770e-05 to 2.5718563562724770e-05 seconds.
Warning: Simulation tolerance relaxed to achieve convergence from 2.5718563562724770e-05 to 2.5718563562725769e-05 seconds.
Warning: Simulation tolerance relaxed to achieve convergence from 2.5718563562725769e-05 to 2.5718563562726769e-05 seconds.
Warning: Simulation tolerance relaxed to achieve convergence from 2.5718563562726769e-05 to 2.5718563562727768e-05 seconds.
Warning: Simulation tolerance relaxed to achieve convergence from 2.5718563562727768e-05 to 2.5718563562728768e-05 seconds.
Warning: Simulation tolerance relaxed to achieve convergence from 2.5718563562728768e-05 to 2.5718563562729767e-05 seconds.
Warning: Simulation tolerance relaxed to achieve convergence from 2.5718563562729767e-05 to 2.5718563562730767e-05 seconds.
Warning: Simulation tolerance relaxed to achieve convergence from 2.5718563562730767e-05 to 2.5718563562731766e-05 seconds.
Warning: Simulation tolerance relaxed to achieve convergence from 2.5718563562731766e-05 to 2.5718563562732766e-05 seconds.
Warning: Simulation tolerance relaxed to achieve convergence from 2.5718563562732766e-05 to 2.5718563562733765e-05 seconds.
Warning: Simulation tolerance relaxed to achieve convergence from 2.5718563562733765e-05 to 2.5718563562734765e-05 seconds.
Warning: Simulation tolerance relaxed to achieve convergence from 2.5718563562734765e-05 to 2.5718563562735764e-05 seconds.
Warning: Simulation tolerance relaxed to achieve convergence from 2.5718563562735764e-05 to 2.5718563562736764e-05 seconds.
Warning: Simulation tolerance relaxed to achieve convergence from 2.5718563562736764e-05 to 2.5718563562737763e-05 seconds.
Warning: Simulation tolerance relaxed to achieve convergence from 2.5718563562737763e-05 to 2.5718563562738763e-05 seconds.
Warning: Simulation tolerance relaxed to achieve convergence from 2.5718563562738763e-05 to 2.5718563562739762e-05 seconds.
Warning: Simulation tolerance relaxed to achieve convergence from 2.5718563562739762e-05 to 2.5718563562740762e-05 seconds.
Warning: Simulation tolerance relaxed to achieve convergence from 2.5718563562740762e-05 to 2.5718563562741761e-05 seconds.
Warning: Simulation tolerance relaxed to achieve convergence from 2.5718563562741761e-05 to 2.5718563562742761e-05 seconds.
Warning: Simulation tolerance relaxed to achieve convergence from 2.5718563562742761e-05 to 2.5718563562743760e-05 seconds.
Warning: Simulation tolerance relaxed to achieve convergence from 2.5718563562743760e-05 to 2.5718563562744760e-05 seconds.
Warning: Simulation tolerance relaxed to achieve convergence from 2.5718563562744760e-05 to 2.5718563562745759e-05 seconds.
Warning: Simulation tolerance relaxed to achieve convergence from 2.5718563562745759e-05 to 2.5718563562746759e-05 seconds.
Warning: Simulation tolerance relaxed to achieve convergence from 2.5718563562746759e-05 to 2.5718563562747758e-05 seconds.
Warning: Simulation tolerance relaxed to achieve convergence from 2.5718563562747758e-05 to 2.5718563562748758e-05 seconds.
Warning: Simulation tolerance relaxed to achieve convergence from 2.5718563562748758e-05 to 2.5718563562749757e-05 seconds.
Warning: Simulation tolerance relaxed to achieve convergence from 2.5718563562749757e-05 to 2.5718563562750757e-05 seconds.
Warning: Simulation tolerance relaxed to achieve convergence from 2.5718563562750757e-05 to 2.5718563562751756e-05 seconds.
Warning: Simulation tolerance relaxed to achieve convergence from 2.5718563562751756e-05 to 2.5718563562752756e-05 seconds.
Warning: Simulation tolerance relaxed to achieve convergence from 2.5718563562752756e-05 to 2.5718563562753755e-05 seconds.
Warning: Simulation tolerance relaxed to achieve convergence from 2.5718563562754755e-05 to 2.5718563562755754e-05 seconds.
Warning: Simulation tolerance relaxed to achieve convergence from 2.5718563562761755e-05 to 2.5718563562762754e-05 seconds.
Warning: Simulation tolerance relaxed to achieve convergence from 2.5718563562762754e-05 to 2.5718563562763754e-05 seconds.
Warning: Simulation tolerance relaxed to achieve convergence from 2.5718563562763754e-05 to 2.5718563562764753e-05 seconds.
Warning: Simulation tolerance relaxed to achieve convergence from 2.5718563562764753e-05 to 2.5718563562765753e-05 seconds.
Warning: Simulation tolerance relaxed to achieve convergence from 2.5718563562765753e-05 to 2.5718563562766752e-05 seconds.
Warning: Simulation tolerance relaxed to achieve convergence from 2.5718563562766752e-05 to 2.5718563562767752e-05 seconds.
Warning: Simulation tolerance relaxed to achieve convergence from 2.5718563562767752e-05 to 2.5718563562768751e-05 seconds.
Warning: Simulation tolerance relaxed to achieve convergence from 2.5718563562768751e-05 to 2.5718563562769751e-05 seconds.
Warning: Simulation tolerance relaxed to achieve convergence from 2.5718563562769751e-05 to 2.5718563562770750e-05 seconds.
Warning: Simulation tolerance relaxed to achieve convergence from 2.5718563562770750e-05 to 2.5718563562771750e-05 seconds.
Warning: Simulation tolerance relaxed to achieve convergence from 2.5718563562771750e-05 to 2.5718563562772749e-05 seconds.
Warning: Simulation tolerance relaxed to achieve convergence from 2.5718563562772749e-05 to 2.5718563562773749e-05 seconds.
Warning: Simulation tolerance relaxed to achieve convergence from 2.5718563562773749e-05 to 2.5718563562774748e-05 seconds.
Warning: Simulation tolerance relaxed to achieve convergence from 2.5718563562774748e-05 to 2.5718563562775748e-05 seconds.
Warning: Simulation tolerance relaxed to achieve convergence from 2.5718563562775748e-05 to 2.5718563562776747e-05 seconds.
Warning: Simulation tolerance relaxed to achieve convergence from 2.5718563562776747e-05 to 2.5718563562777747e-05 seconds.
Warning: Simulation tolerance relaxed to achieve convergence from 2.5718563562777747e-05 to 2.5718563562778746e-05 seconds.
Warning: Simulation tolerance relaxed to achieve convergence from 2.5718563562778746e-05 to 2.5718563562779746e-05 seconds.
Warning: Simulation tolerance relaxed to achieve convergence from 2.5718563562779746e-05 to 2.5718563562780745e-05 seconds.
Warning: Simulation tolerance relaxed to achieve convergence from 2.5718563562780745e-05 to 2.5718563562781745e-05 seconds.
Warning: Simulation tolerance relaxed to achieve convergence from 2.5718563562781745e-05 to 2.5718563562782744e-05 seconds.
Warning: Simulation tolerance relaxed to achieve convergence from 2.5718563562782744e-05 to 2.5718563562783744e-05 seconds.
Warning: Simulation tolerance relaxed to achieve convergence from 2.5718563562783744e-05 to 2.5718563562784743e-05 seconds.
Warning: Simulation tolerance relaxed to achieve convergence from 2.5718563562784743e-05 to 2.5718563562785743e-05 seconds.
Warning: Simulation tolerance relaxed to achieve convergence from 2.5718563562785743e-05 to 2.5718563562786742e-05 seconds.
Warning: Simulation tolerance relaxed to achieve convergence from 2.5718563562786742e-05 to 2.5718563562787742e-05 seconds.
Warning: Simulation tolerance relaxed to achieve convergence from 2.5718563562787742e-05 to 2.5718563562788741e-05 seconds.
Warning: Simulation tolerance relaxed to achieve convergence from 2.5718563562788741e-05 to 2.5718563562789741e-05 seconds.
Warning: Simulation tolerance relaxed to achieve convergence from 2.5718563562789741e-05 to 2.5718563562790740e-05 seconds.
Warning: Simulation tolerance relaxed to achieve convergence from 2.5718563562790740e-05 to 2.5718563562791740e-05 seconds.
Warning: Simulation tolerance relaxed to achieve convergence from 2.5718563562791740e-05 to 2.5718563562792739e-05 seconds.
Warning: Simulation tolerance relaxed to achieve convergence from 2.5718563562792739e-05 to 2.5718563562793739e-05 seconds.
Warning: Simulation tolerance relaxed to achieve convergence from 2.5718563562793739e-05 to 2.5718563562794738e-05 seconds.
Warning: Simulation tolerance relaxed to achieve convergence from 2.5718563562795738e-05 to 2.5718563562796737e-05 seconds.
Warning: Simulation tolerance relaxed to achieve convergence from 2.5718563562796737e-05 to 2.5718563562797737e-05 seconds.
Warning: Simulation tolerance relaxed to achieve convergence from 2.5718563562797737e-05 to 2.5718563562798736e-05 seconds.
Warning: Simulation tolerance relaxed to achieve convergence from 2.5718563562798736e-05 to 2.5718563562799736e-05 seconds.
Warning: Simulation tolerance relaxed to achieve convergence from 2.5718563562801735e-05 to 2.5718563562802734e-05 seconds.
Warning: Simulation tolerance relaxed to achieve convergence from 2.5718563562802734e-05 to 2.5718563562803734e-05 seconds.
Warning: Simulation tolerance relaxed to achieve convergence from 2.5718563562803734e-05 to 2.5718563562804733e-05 seconds.
Warning: Simulation tolerance relaxed to achieve convergence from 2.5718563562804733e-05 to 2.5718563562805733e-05 seconds.
Warning: Simulation tolerance relaxed to achieve convergence from 2.5718563562805733e-05 to 2.5718563562806732e-05 seconds.
Warning: Simulation tolerance relaxed to achieve convergence from 2.5718563562806732e-05 to 2.5718563562807732e-05 seconds.
Warning: Simulation tolerance relaxed to achieve convergence from 2.5718563562807732e-05 to 2.5718563562808731e-05 seconds.
Warning: Simulation tolerance relaxed to achieve convergence from 2.5718563562808731e-05 to 2.5718563562809731e-05 seconds.
Warning: Simulation tolerance relaxed to achieve convergence from 2.5718563562809731e-05 to 2.5718563562810730e-05 seconds.
Warning: Simulation tolerance relaxed to achieve convergence from 2.5718563562810730e-05 to 2.5718563562811730e-05 seconds.
Warning: Simulation tolerance relaxed to achieve convergence from 2.5718563562811730e-05 to 2.5718563562812729e-05 seconds.
Warning: Simulation tolerance relaxed to achieve convergence from 2.5718563562812729e-05 to 2.5718563562813729e-05 seconds.
Warning: Simulation tolerance relaxed to achieve convergence from 2.5718563562813729e-05 to 2.5718563562814728e-05 seconds.
Warning: Simulation tolerance relaxed to achieve convergence from 2.5718563562814728e-05 to 2.5718563562815728e-05 seconds.
Warning: Simulation tolerance relaxed to achieve convergence from 2.5718563562815728e-05 to 2.5718563562816727e-05 seconds.
Warning: Simulation tolerance relaxed to achieve convergence from 2.5718563562816727e-05 to 2.5718563562817727e-05 seconds.
Warning: Simulation tolerance relaxed to achieve convergence from 2.5718563562817727e-05 to 2.5718563562818726e-05 seconds.
Warning: Simulation tolerance relaxed to achieve convergence from 2.5718563562818726e-05 to 2.5718563562819726e-05 seconds.
Warning: Simulation tolerance relaxed to achieve convergence from 2.5718563562819726e-05 to 2.5718563562820725e-05 seconds.
Warning: Simulation tolerance relaxed to achieve convergence from 2.5718563562820725e-05 to 2.5718563562821725e-05 seconds.
Warning: Simulation tolerance relaxed to achieve convergence from 2.5718563562821725e-05 to 2.5718563562822724e-05 seconds.
Warning: Simulation tolerance relaxed to achieve convergence from 2.5718563562822724e-05 to 2.5718563562823724e-05 seconds.
Warning: Simulation tolerance relaxed to achieve convergence from 2.5718563562824723e-05 to 2.5718563562825723e-05 seconds.
Warning: Simulation tolerance relaxed to achieve convergence from 2.5718563562825723e-05 to 2.5718563562826722e-05 seconds.
Warning: Simulation tolerance relaxed to achieve convergence from 2.5718563562826722e-05 to 2.5718563562827722e-05 seconds.
Warning: Simulation tolerance relaxed to achieve convergence from 2.5718563562827722e-05 to 2.5718563562828721e-05 seconds.
Warning: Simulation tolerance relaxed to achieve convergence from 2.5718563562828721e-05 to 2.5718563562829721e-05 seconds.
Warning: Simulation tolerance relaxed to achieve convergence from 2.5718563562829721e-05 to 2.5718563562830720e-05 seconds.
Warning: Simulation tolerance relaxed to achieve convergence from 2.5718563562830720e-05 to 2.5718563562831720e-05 seconds.
Warning: Simulation tolerance relaxed to achieve convergence from 2.5718563562831720e-05 to 2.5718563562832719e-05 seconds.
Warning: Simulation tolerance relaxed to achieve convergence from 2.5718563562832719e-05 to 2.5718563562833719e-05 seconds.
Warning: Simulation tolerance relaxed to achieve convergence from 2.5718563562833719e-05 to 2.5718563562834718e-05 seconds.
Warning: Simulation tolerance relaxed to achieve convergence from 2.5718563562834718e-05 to 2.5718563562835718e-05 seconds.
Warning: Simulation tolerance relaxed to achieve convergence from 2.5718563562835718e-05 to 2.5718563562836717e-05 seconds.
Warning: Simulation tolerance relaxed to achieve convergence from 2.5718563562836717e-05 to 2.5718563562837717e-05 seconds.
Warning: Simulation tolerance relaxed to achieve convergence from 2.5718563562837717e-05 to 2.5718563562838716e-05 seconds.
Warning: Simulation tolerance relaxed to achieve convergence from 2.5718563562838716e-05 to 2.5718563562839716e-05 seconds.
Warning: Simulation tolerance relaxed to achieve convergence from 2.5718563562839716e-05 to 2.5718563562840715e-05 seconds.
Warning: Simulation tolerance relaxed to achieve convergence from 2.5718563562840715e-05 to 2.5718563562841715e-05 seconds.
Warning: Simulation tolerance relaxed to achieve convergence from 2.5718563562841715e-05 to 2.5718563562842714e-05 seconds.
Warning: Simulation tolerance relaxed to achieve convergence from 2.5718563562842714e-05 to 2.5718563562843714e-05 seconds.
Warning: Simulation tolerance relaxed to achieve convergence from 2.5718563562843714e-05 to 2.5718563562844713e-05 seconds.
Warning: Simulation tolerance relaxed to achieve convergence from 2.5718563562844713e-05 to 2.5718563562845713e-05 seconds.
Warning: Simulation tolerance relaxed to achieve convergence from 2.5718563562845713e-05 to 2.5718563562846712e-05 seconds.
Warning: Simulation tolerance relaxed to achieve convergence from 2.5718563562846712e-05 to 2.5718563562847712e-05 seconds.
Warning: Simulation tolerance relaxed to achieve convergence from 2.5718563562847712e-05 to 2.5718563562848711e-05 seconds.
Warning: Simulation tolerance relaxed to achieve convergence from 2.5718563562848711e-05 to 2.5718563562849711e-05 seconds.
Warning: Simulation tolerance relaxed to achieve convergence from 2.5718563562849711e-05 to 2.5718563562850710e-05 seconds.
Warning: Simulation tolerance relaxed to achieve convergence from 2.5718563562850710e-05 to 2.5718563562851710e-05 seconds.
Warning: Simulation tolerance relaxed to achieve convergence from 2.5718563562851710e-05 to 2.5718563562852709e-05 seconds.
Warning: Simulation tolerance relaxed to achieve convergence from 2.5718563562852709e-05 to 2.5718563562853709e-05 seconds.
Warning: Simulation tolerance relaxed to achieve convergence from 2.5718563562853709e-05 to 2.5718563562854708e-05 seconds.
Warning: Simulation tolerance relaxed to achieve convergence from 2.5718563562854708e-05 to 2.5718563562855708e-05 seconds.
Warning: Simulation tolerance relaxed to achieve convergence from 2.5718563562855708e-05 to 2.5718563562856707e-05 seconds.
Warning: Simulation tolerance relaxed to achieve convergence from 2.5718563562856707e-05 to 2.5718563562857707e-05 seconds.
Warning: Simulation tolerance relaxed to achieve convergence from 2.5718563562857707e-05 to 2.5718563562858706e-05 seconds.
Warning: Simulation tolerance relaxed to achieve convergence from 2.5718563562858706e-05 to 2.5718563562859706e-05 seconds.
Warning: Simulation tolerance relaxed to achieve convergence from 2.5718563562859706e-05 to 2.5718563562860705e-05 seconds.
Warning: Simulation tolerance relaxed to achieve convergence from 2.5718563562860705e-05 to 2.5718563562861705e-05 seconds.
Warning: Simulation tolerance relaxed to achieve convergence from 2.5718563562861705e-05 to 2.5718563562862704e-05 seconds.
Warning: Simulation tolerance relaxed to achieve convergence from 2.5718563562862704e-05 to 2.5718563562863704e-05 seconds.
Warning: Simulation tolerance relaxed to achieve convergence from 2.5718563562863704e-05 to 2.5718563562864703e-05 seconds.
Warning: Simulation tolerance relaxed to achieve convergence from 2.5718563562864703e-05 to 2.5718563562865703e-05 seconds.
Warning: Simulation tolerance relaxed to achieve convergence from 2.5718563562865703e-05 to 2.5718563562866702e-05 seconds.
Warning: Simulation tolerance relaxed to achieve convergence from 2.5718563562866702e-05 to 2.5718563562867702e-05 seconds.
Warning: Simulation tolerance relaxed to achieve convergence from 2.5718563562867702e-05 to 2.5718563562868701e-05 seconds.
Warning: Simulation tolerance relaxed to achieve convergence from 2.5718563562868701e-05 to 2.5718563562869701e-05 seconds.
Warning: Simulation tolerance relaxed to achieve convergence from 2.5718563562869701e-05 to 2.5718563562870700e-05 seconds.
Warning: Simulation tolerance relaxed to achieve convergence from 2.5718563562870700e-05 to 2.5718563562871700e-05 seconds.
Warning: Simulation tolerance relaxed to achieve convergence from 2.5718563562871700e-05 to 2.5718563562872699e-05 seconds.
Warning: Simulation tolerance relaxed to achieve convergence from 2.5718563562872699e-05 to 2.5718563562873699e-05 seconds.
Warning: Simulation tolerance relaxed to achieve convergence from 2.5718563562873699e-05 to 2.5718563562874698e-05 seconds.
Warning: Simulation tolerance relaxed to achieve convergence from 2.5718563562874698e-05 to 2.5718563562875698e-05 seconds.
Warning: Simulation tolerance relaxed to achieve convergence from 2.5718563562875698e-05 to 2.5718563562876697e-05 seconds.
Warning: Simulation tolerance relaxed to achieve convergence from 2.5718563562876697e-05 to 2.5718563562877697e-05 seconds.
Warning: Simulation tolerance relaxed to achieve convergence from 2.5718563562877697e-05 to 2.5718563562878696e-05 seconds.
Warning: Simulation tolerance relaxed to achieve convergence from 2.5718563562878696e-05 to 2.5718563562879696e-05 seconds.
Warning: Simulation tolerance relaxed to achieve convergence from 2.5718563562879696e-05 to 2.5718563562880695e-05 seconds.
Warning: Simulation tolerance relaxed to achieve convergence from 2.5718563562880695e-05 to 2.5718563562881695e-05 seconds.
Warning: Simulation tolerance relaxed to achieve convergence from 2.5718563562881695e-05 to 2.5718563562882694e-05 seconds.
Warning: Simulation tolerance relaxed to achieve convergence from 2.5718563562882694e-05 to 2.5718563562883694e-05 seconds.
Warning: Simulation tolerance relaxed to achieve convergence from 2.5718563562883694e-05 to 2.5718563562884693e-05 seconds.
Warning: Simulation tolerance relaxed to achieve convergence from 2.5718563562884693e-05 to 2.5718563562885693e-05 seconds.
Warning: Simulation tolerance relaxed to achieve convergence from 2.5718563562885693e-05 to 2.5718563562886692e-05 seconds.
Warning: Simulation tolerance relaxed to achieve convergence from 2.5718563562886692e-05 to 2.5718563562887692e-05 seconds.
Warning: Simulation tolerance relaxed to achieve convergence from 2.5718563562887692e-05 to 2.5718563562888691e-05 seconds.
Warning: Simulation tolerance relaxed to achieve convergence from 2.5718563562888691e-05 to 2.5718563562889691e-05 seconds.
Warning: Simulation tolerance relaxed to achieve convergence from 2.5718563562889691e-05 to 2.5718563562890690e-05 seconds.
Warning: Simulation tolerance relaxed to achieve convergence from 2.5718563562890690e-05 to 2.5718563562891690e-05 seconds.
Warning: Simulation tolerance relaxed to achieve convergence from 2.5718563562891690e-05 to 2.5718563562892689e-05 seconds.
Warning: Simulation tolerance relaxed to achieve convergence from 2.5718563562892689e-05 to 2.5718563562893689e-05 seconds.
Warning: Simulation tolerance relaxed to achieve convergence from 2.5718563562893689e-05 to 2.5718563562894688e-05 seconds.
Warning: Simulation tolerance relaxed to achieve convergence from 2.5718563562894688e-05 to 2.5718563562895688e-05 seconds.
Warning: Simulation tolerance relaxed to achieve convergence from 2.5718563562895688e-05 to 2.5718563562896687e-05 seconds.
Warning: Simulation tolerance relaxed to achieve convergence from 2.5718563562896687e-05 to 2.5718563562897687e-05 seconds.
Warning: Simulation tolerance relaxed to achieve convergence from 2.5718563562897687e-05 to 2.5718563562898686e-05 seconds.
Warning: Simulation tolerance relaxed to achieve convergence from 2.5718563562898686e-05 to 2.5718563562899686e-05 seconds.
Warning: Simulation tolerance relaxed to achieve convergence from 2.5718563562899686e-05 to 2.5718563562900685e-05 seconds.
Warning: Simulation tolerance relaxed to achieve convergence from 2.5718563562900685e-05 to 2.5718563562901685e-05 seconds.
Warning: Simulation tolerance relaxed to achieve convergence from 2.5718563562901685e-05 to 2.5718563562902684e-05 seconds.
Warning: Simulation tolerance relaxed to achieve convergence from 2.5718563562902684e-05 to 2.5718563562903684e-05 seconds.
Warning: Simulation tolerance relaxed to achieve convergence from 2.5718563562903684e-05 to 2.5718563562904683e-05 seconds.
Warning: Simulation tolerance relaxed to achieve convergence from 2.5718563562904683e-05 to 2.5718563562905683e-05 seconds.
Warning: Simulation tolerance relaxed to achieve convergence from 2.5718563562905683e-05 to 2.5718563562906682e-05 seconds.
[...]
Warning: Simulation tolerance relaxed to achieve convergence from 2.5718563563901211e-05 to 2.5718563563902210e-05 seconds.
Warning: Simulation tolerance relaxed to achieve convergence from 2.5718563563902210e-05 to 2.5718563563903210e-05 seconds.
Warning: Simulation tolerance relaxed to achieve convergence from 2.5718563563905209e-05 to 2.5718563563906208e-05 seconds.
Warning: Simulation tolerance relaxed to achieve convergence from 2.5718563563906208e-05 to 2.5718563563907208e-05 seconds.
Warning: Simulation tolerance relaxed to achieve convergence from 2.5718563563907208e-05 to 2.5718563563908207e-05 seconds.
Warning: Simulation tolerance relaxed to achieve convergence from 2.5718563563908207e-05 to 2.5718563563909207e-05 seconds.
Warning: Simulation tolerance relaxed to achieve convergence from 2.5718563563909207e-05 to 2.5718563563910206e-05 seconds.
Warning: Simulation tolerance relaxed to achieve convergence from 2.5718563563910206e-05 to 2.5718563563911206e-05 seconds.
Warning: Simulation tolerance relaxed to achieve convergence from 2.5718563563911206e-05 to 2.5718563563912205e-05 seconds.
Warning: Simulation tolerance relaxed to achieve convergence from 2.5718563563912205e-05 to 2.5718563563913205e-05 seconds.
Warning: Simulation tolerance relaxed to achieve convergence from 2.5718563563913205e-05 to 2.5718563563914204e-05 seconds.
Warning: Simulation tolerance relaxed to achieve convergence from 2.5718563563914204e-05 to 2.5718563563915204e-05 seconds.
Warning: Simulation tolerance relaxed to achieve convergence from 2.5718563563915204e-05 to 2.5718563563916203e-05 seconds.
Warning: Simulation tolerance relaxed to achieve convergence from 2.5718563563916203e-05 to 2.5718563563917203e-05 seconds.
Warning: Simulation tolerance relaxed to achieve convergence from 2.5718563563917203e-05 to 2.5718563563918202e-05 seconds.
Warning: Simulation tolerance relaxed to achieve convergence from 2.5718563563918202e-05 to 2.5718563563919202e-05 seconds.
Warning: Simulation tolerance relaxed to achieve convergence from 2.5718563563919202e-05 to 2.5718563563920201e-05 seconds.
Warning: Simulation tolerance relaxed to achieve convergence from 2.5718563563920201e-05 to 2.5718563563921201e-05 seconds.
Warning: Simulation tolerance relaxed to achieve convergence from 2.5718563563921201e-05 to 2.5718563563922200e-05 seconds.
Warning: Simulation tolerance relaxed to achieve convergence from 2.5718563563922200e-05 to 2.5718563563923200e-05 seconds.
Warning: Simulation tolerance relaxed to achieve convergence from 2.5718563563923200e-05 to 2.5718563563924199e-05 seconds.
Warning: Simulation tolerance relaxed to achieve convergence from 2.5718563563924199e-05 to 2.5718563563925199e-05 seconds.
Warning: Simulation tolerance relaxed to achieve convergence from 2.5718563563925199e-05 to 2.5718563563926198e-05 seconds.
Warning: Simulation tolerance relaxed to achieve convergence from 2.5718563563926198e-05 to 2.5718563563927198e-05 seconds.
Warning: Simulation tolerance relaxed to achieve convergence from 2.5718563563927198e-05 to 2.5718563563928197e-05 seconds.
Warning: Simulation tolerance relaxed to achieve convergence from 2.5718563563928197e-05 to 2.5718563563929197e-05 seconds.
Warning: Simulation tolerance relaxed to achieve convergence from 2.5718563563929197e-05 to 2.5718563563930196e-05 seconds.
Warning: Simulation tolerance relaxed to achieve convergence from 2.5718563563930196e-05 to 2.5718563563931196e-05 seconds.
Warning: Simulation tolerance relaxed to achieve convergence from 2.5718563563931196e-05 to 2.5718563563932195e-05 seconds.
Warning: Simulation tolerance relaxed to achieve convergence from 2.5718563563932195e-05 to 2.5718563563933195e-05 seconds.
Warning: Simulation tolerance relaxed to achieve convergence from 2.5718563563933195e-05 to 2.5718563563934194e-05 seconds.
Warning: Simulation tolerance relaxed to achieve convergence from 2.5718563563934194e-05 to 2.5718563563935194e-05 seconds.
Warning: Simulation tolerance relaxed to achieve convergence from 2.5718563563935194e-05 to 2.5718563563936193e-05 seconds.
Warning: Simulation tolerance relaxed to achieve convergence from 2.5718563563936193e-05 to 2.5718563563937193e-05 seconds.
Warning: Simulation tolerance relaxed to achieve convergence from 2.5718563563937193e-05 to 2.5718563563938192e-05 seconds.
Warning: Simulation tolerance relaxed to achieve convergence from 2.5718563563938192e-05 to 2.5718563563939192e-05 seconds.
Warning: Simulation tolerance relaxed to achieve convergence from 2.5718563563939192e-05 to 2.5718563563940191e-05 seconds.
Warning: Simulation tolerance relaxed to achieve convergence from 2.5718563563940191e-05 to 2.5718563563941191e-05 seconds.
Warning: Simulation tolerance relaxed to achieve convergence from 2.5718563563941191e-05 to 2.5718563563942190e-05 seconds.
Warning: Simulation tolerance relaxed to achieve convergence from 2.5718563563942190e-05 to 2.5718563563943190e-05 seconds.
Warning: Simulation tolerance relaxed to achieve convergence from 2.5718563563943190e-05 to 2.5718563563944189e-05 seconds.
Warning: Simulation tolerance relaxed to achieve convergence from 2.5718563563944189e-05 to 2.5718563563945189e-05 seconds.
Warning: Simulation tolerance relaxed to achieve convergence from 2.5718563563945189e-05 to 2.5718563563946188e-05 seconds.
Warning: Simulation tolerance relaxed to achieve convergence from 2.5718563563946188e-05 to 2.5718563563947188e-05 seconds.
Warning: Simulation tolerance relaxed to achieve convergence from 2.5718563563947188e-05 to 2.5718563563948187e-05 seconds.
Warning: Simulation tolerance relaxed to achieve convergence from 2.5718563563948187e-05 to 2.5718563563949187e-05 seconds.
Warning: Simulation tolerance relaxed to achieve convergence from 2.5718563563949187e-05 to 2.5718563563950186e-05 seconds.
Warning: Simulation tolerance relaxed to achieve convergence from 2.5718563563950186e-05 to 2.5718563563951186e-05 seconds.
Warning: Simulation tolerance relaxed to achieve convergence from 2.5718563563951186e-05 to 2.5718563563952185e-05 seconds.
Warning: Simulation tolerance relaxed to achieve convergence from 2.5718563563952185e-05 to 2.5718563563953185e-05 seconds.
Warning: Simulation tolerance relaxed to achieve convergence from 2.5718563563953185e-05 to 2.5718563563954184e-05 seconds.
Warning: Simulation tolerance relaxed to achieve convergence from 2.5718563563954184e-05 to 2.5718563563955184e-05 seconds.
Warning: Simulation tolerance relaxed to achieve convergence from 2.5718563563955184e-05 to 2.5718563563956183e-05 seconds.
Warning: Simulation tolerance relaxed to achieve convergence from 2.5718563563956183e-05 to 2.5718563563957183e-05 seconds.
Warning: Simulation tolerance relaxed to achieve convergence from 2.5718563563957183e-05 to 2.5718563563958182e-05 seconds.
Warning: Simulation tolerance relaxed to achieve convergence from 2.5718563563958182e-05 to 2.5718563563959182e-05 seconds.
Warning: Simulation tolerance relaxed to achieve convergence from 2.5718563563959182e-05 to 2.5718563563960181e-05 seconds.
Warning: Simulation tolerance relaxed to achieve convergence from 2.5718563563960181e-05 to 2.5718563563961181e-05 seconds.
Warning: Simulation tolerance relaxed to achieve convergence from 2.5718563563961181e-05 to 2.5718563563962180e-05 seconds.
Warning: Simulation tolerance relaxed to achieve convergence from 2.5718563563962180e-05 to 2.5718563563963180e-05 seconds.
Warning: Simulation tolerance relaxed to achieve convergence from 2.5718563563963180e-05 to 2.5718563563964179e-05 seconds.
Warning: Simulation tolerance relaxed to achieve convergence from 2.5718563563964179e-05 to 2.5718563563965179e-05 seconds.
Warning: Simulation tolerance relaxed to achieve convergence from 2.5718563563965179e-05 to 2.5718563563966178e-05 seconds.
Warning: Simulation tolerance relaxed to achieve convergence from 2.5718563563966178e-05 to 2.5718563563967178e-05 seconds.
Warning: Simulation tolerance relaxed to achieve convergence from 2.5718563563967178e-05 to 2.5718563563968177e-05 seconds.
Warning: Simulation tolerance relaxed to achieve convergence from 2.5718563563968177e-05 to 2.5718563563969177e-05 seconds.
Warning: Simulation tolerance relaxed to achieve convergence from 2.5718563563969177e-05 to 2.5718563563970176e-05 seconds.
Warning: Simulation tolerance relaxed to achieve convergence from 2.5718563563970176e-05 to 2.5718563563971176e-05 seconds.
Warning: Simulation tolerance relaxed to achieve convergence from 2.5718563563971176e-05 to 2.5718563563972175e-05 seconds.
Warning: Simulation tolerance relaxed to achieve convergence from 2.5718563563972175e-05 to 2.5718563563973175e-05 seconds.
Warning: Simulation tolerance relaxed to achieve convergence from 2.5718563563973175e-05 to 2.5718563563974174e-05 seconds.
Warning: Simulation tolerance relaxed to achieve convergence from 2.5718563563974174e-05 to 2.5718563563975174e-05 seconds.
Warning: Simulation tolerance relaxed to achieve convergence from 2.5718563563975174e-05 to 2.5718563563976173e-05 seconds.
Warning: Simulation tolerance relaxed to achieve convergence from 2.5718563563976173e-05 to 2.5718563563977173e-05 seconds.
Warning: Simulation tolerance relaxed to achieve convergence from 2.5718563563977173e-05 to 2.5718563563978172e-05 seconds.
Warning: Simulation tolerance relaxed to achieve convergence from 2.5718563563978172e-05 to 2.5718563563979172e-05 seconds.
Warning: Simulation tolerance relaxed to achieve convergence from 2.5718563563979172e-05 to 2.5718563563980171e-05 seconds.
Warning: Simulation tolerance relaxed to achieve convergence from 2.5718563563980171e-05 to 2.5718563563981171e-05 seconds.
Warning: Simulation tolerance relaxed to achieve convergence from 2.5718563563981171e-05 to 2.5718563563982170e-05 seconds.
Warning: Simulation tolerance relaxed to achieve convergence from 2.5718563563982170e-05 to 2.5718563563983170e-05 seconds.
Warning: Simulation tolerance relaxed to achieve convergence from 2.5718563563983170e-05 to 2.5718563563984169e-05 seconds.
Warning: Simulation tolerance relaxed to achieve convergence from 2.5718563563984169e-05 to 2.5718563563985169e-05 seconds.
Warning: Simulation tolerance relaxed to achieve convergence from 2.5718563563985169e-05 to 2.5718563563986168e-05 seconds.
Warning: Simulation tolerance relaxed to achieve convergence from 2.5718563563986168e-05 to 2.5718563563987168e-05 seconds.
Warning: Simulation tolerance relaxed to achieve convergence from 2.5718563563987168e-05 to 2.5718563563988167e-05 seconds.
Warning: Simulation tolerance relaxed to achieve convergence from 2.5718563563988167e-05 to 2.5718563563989167e-05 seconds.
Warning: Simulation tolerance relaxed to achieve convergence from 2.5718563563989167e-05 to 2.5718563563990166e-05 seconds.
Warning: Simulation tolerance relaxed to achieve convergence from 2.5718563563990166e-05 to 2.5718563563991166e-05 seconds.
Warning: Simulation tolerance relaxed to achieve convergence from 2.5718563563991166e-05 to 2.5718563563992165e-05 seconds.
Warning: Simulation tolerance relaxed to achieve convergence from 2.5718563563992165e-05 to 2.5718563563993165e-05 seconds.
Warning: Simulation tolerance relaxed to achieve convergence from 2.5718563563993165e-05 to 2.5718563563994164e-05 seconds.
Warning: Simulation tolerance relaxed to achieve convergence from 2.5718563563994164e-05 to 2.5718563563995164e-05 seconds.
Warning: Simulation tolerance relaxed to achieve convergence from 2.5718563563995164e-05 to 2.5718563563996163e-05 seconds.
Warning: Simulation tolerance relaxed to achieve convergence from 2.5718563563996163e-05 to 2.5718563563997163e-05 seconds.
Warning: Simulation tolerance relaxed to achieve convergence from 2.5718563563997163e-05 to 2.5718563563998162e-05 seconds.
Warning: Simulation tolerance relaxed to achieve convergence from 2.5718563563998162e-05 to 2.5718563563999162e-05 seconds.
Warning: Simulation tolerance relaxed to achieve convergence from 2.5718563563999162e-05 to 2.5718563564000161e-05 seconds.
Warning: Simulation tolerance relaxed to achieve convergence from 2.5718563564000161e-05 to 2.5718563564001161e-05 seconds.
Warning: Simulation tolerance relaxed to achieve convergence from 2.5718563564001161e-05 to 2.5718563564002160e-05 seconds.
Warning: Simulation tolerance relaxed to achieve convergence from 2.5718563564002160e-05 to 2.5718563564003160e-05 seconds.
Warning: Simulation tolerance relaxed to achieve convergence from 2.5718563564003160e-05 to 2.5718563564004159e-05 seconds.
Warning: Simulation tolerance relaxed to achieve convergence from 2.5718563564004159e-05 to 2.5718563564005159e-05 seconds.
Warning: Simulation tolerance relaxed to achieve convergence from 2.5718563564005159e-05 to 2.5718563564006158e-05 seconds.
Warning: Simulation tolerance relaxed to achieve convergence from 2.5718563564006158e-05 to 2.5718563564007158e-05 seconds.
Warning: Simulation tolerance relaxed to achieve convergence from 2.5718563564009157e-05 to 2.5718563564010156e-05 seconds.
Warning: Simulation tolerance relaxed to achieve convergence from 2.5718563564010156e-05 to 2.5718563564011156e-05 seconds.
Warning: Simulation tolerance relaxed to achieve convergence from 2.5718563564011156e-05 to 2.5718563564012155e-05 seconds.
Warning: Simulation tolerance relaxed to achieve convergence from 2.5718563564012155e-05 to 2.5718563564013155e-05 seconds.
Warning: Simulation tolerance relaxed to achieve convergence from 2.5718563564013155e-05 to 2.5718563564014154e-05 seconds.
Warning: Simulation tolerance relaxed to achieve convergence from 2.5718563564014154e-05 to 2.5718563564015154e-05 seconds.
Warning: Simulation tolerance relaxed to achieve convergence from 2.5718563564015154e-05 to 2.5718563564016153e-05 seconds.
Warning: Simulation tolerance relaxed to achieve convergence from 2.5718563564016153e-05 to 2.5718563564017153e-05 seconds.
Warning: Simulation tolerance relaxed to achieve convergence from 2.5718563564017153e-05 to 2.5718563564018152e-05 seconds.
Warning: Simulation tolerance relaxed to achieve convergence from 2.5718563564018152e-05 to 2.5718563564019152e-05 seconds.
Warning: Simulation tolerance relaxed to achieve convergence from 2.5718563564025152e-05 to 2.5718563564026151e-05 seconds.
Warning: Simulation tolerance relaxed to achieve convergence from 2.5718563564026151e-05 to 2.5718563564027151e-05 seconds.
Warning: Simulation tolerance relaxed to achieve convergence from 2.5718563564027151e-05 to 2.5718563564028150e-05 seconds.
Warning: Simulation tolerance relaxed to achieve convergence from 2.5718563564028150e-05 to 2.5718563564029150e-05 seconds.
Warning: Simulation tolerance relaxed to achieve convergence from 2.5718563564029150e-05 to 2.5718563564030149e-05 seconds.
Warning: Simulation tolerance relaxed to achieve convergence from 2.5718563564030149e-05 to 2.5718563564031149e-05 seconds.
Warning: Simulation tolerance relaxed to achieve convergence from 2.5718563564031149e-05 to 2.5718563564032148e-05 seconds.
Warning: Simulation tolerance relaxed to achieve convergence from 2.5718563564032148e-05 to 2.5718563564033148e-05 seconds.
Warning: Simulation tolerance relaxed to achieve convergence from 2.5718563564033148e-05 to 2.5718563564034147e-05 seconds.
Warning: Simulation tolerance relaxed to achieve convergence from 2.5718563564034147e-05 to 2.5718563564035147e-05 seconds.
Warning: Simulation tolerance relaxed to achieve convergence from 2.5718563564035147e-05 to 2.5718563564036146e-05 seconds.
Warning: Simulation tolerance relaxed to achieve convergence from 2.5718563564036146e-05 to 2.5718563564037146e-05 seconds.
Warning: Simulation tolerance relaxed to achieve convergence from 2.5718563564037146e-05 to 2.5718563564038145e-05 seconds.
Warning: Simulation tolerance relaxed to achieve convergence from 2.5718563564038145e-05 to 2.5718563564039145e-05 seconds.
Warning: Simulation tolerance relaxed to achieve convergence from 2.5718563564039145e-05 to 2.5718563564040144e-05 seconds.
Warning: Simulation tolerance relaxed to achieve convergence from 2.5718563564040144e-05 to 2.5718563564041144e-05 seconds.
Warning: Simulation tolerance relaxed to achieve convergence from 2.5718563564041144e-05 to 2.5718563564042143e-05 seconds.
Warning: Simulation tolerance relaxed to achieve convergence from 2.5718563564042143e-05 to 2.5718563564043143e-05 seconds.
Warning: Simulation tolerance relaxed to achieve convergence from 2.5718563564043143e-05 to 2.5718563564044142e-05 seconds.
Warning: Simulation tolerance relaxed to achieve convergence from 2.5718563564044142e-05 to 2.5718563564045142e-05 seconds.
Warning: Simulation tolerance relaxed to achieve convergence from 2.5718563564045142e-05 to 2.5718563564046141e-05 seconds.
Warning: Simulation tolerance relaxed to achieve convergence from 2.5718563564046141e-05 to 2.5718563564047141e-05 seconds.
Warning: Simulation tolerance relaxed to achieve convergence from 2.5718563564047141e-05 to 2.5718563564048140e-05 seconds.
Warning: Simulation tolerance relaxed to achieve convergence from 2.5718563564048140e-05 to 2.5718563564049140e-05 seconds.
Warning: Simulation tolerance relaxed to achieve convergence from 2.5718563564049140e-05 to 2.5718563564050139e-05 seconds.
Warning: Simulation tolerance relaxed to achieve convergence from 2.5718563564050139e-05 to 2.5718563564051139e-05 seconds.
Warning: Simulation tolerance relaxed to achieve convergence from 2.5718563564051139e-05 to 2.5718563564052138e-05 seconds.
Warning: Simulation tolerance relaxed to achieve convergence from 2.5718563564052138e-05 to 2.5718563564053138e-05 seconds.
Warning: Simulation tolerance relaxed to achieve convergence from 2.5718563564053138e-05 to 2.5718563564054137e-05 seconds.
Warning: Simulation tolerance relaxed to achieve convergence from 2.5718563564054137e-05 to 2.5718563564055137e-05 seconds.
Warning: Simulation tolerance relaxed to achieve convergence from 2.5718563564055137e-05 to 2.5718563564056136e-05 seconds.
Warning: Simulation tolerance relaxed to achieve convergence from 2.5718563564056136e-05 to 2.5718563564057136e-05 seconds.
Warning: Simulation tolerance relaxed to achieve convergence from 2.5718563564057136e-05 to 2.5718563564058135e-05 seconds.
Warning: Simulation tolerance relaxed to achieve convergence from 2.5718563564058135e-05 to 2.5718563564059135e-05 seconds.
Warning: Simulation tolerance relaxed to achieve convergence from 2.5718563564059135e-05 to 2.5718563564060134e-05 seconds.
Warning: Simulation tolerance relaxed to achieve convergence from 2.5718563564060134e-05 to 2.5718563564061134e-05 seconds.
Warning: Simulation tolerance relaxed to achieve convergence from 2.5718563564061134e-05 to 2.5718563564062133e-05 seconds.
Warning: Simulation tolerance relaxed to achieve convergence from 2.5718563564062133e-05 to 2.5718563564063133e-05 seconds.
Warning: Simulation tolerance relaxed to achieve convergence from 2.5718563564063133e-05 to 2.5718563564064132e-05 seconds.
Warning: Simulation tolerance relaxed to achieve convergence from 2.5718563564064132e-05 to 2.5718563564065132e-05 seconds.
Warning: Simulation tolerance relaxed to achieve convergence from 2.5718563564065132e-05 to 2.5718563564066131e-05 seconds.
Warning: Simulation tolerance relaxed to achieve convergence from 2.5718563564066131e-05 to 2.5718563564067131e-05 seconds.
Warning: Simulation tolerance relaxed to achieve convergence from 2.5718563564067131e-05 to 2.5718563564068130e-05 seconds.
Warning: Simulation tolerance relaxed to achieve convergence from 2.5718563564068130e-05 to 2.5718563564069130e-05 seconds.
Warning: Simulation tolerance relaxed to achieve convergence from 2.5718563564069130e-05 to 2.5718563564069130e-05 seconds.

Simulation stopped by user.
Total elapsed time: 68.664 seconds.

Files loaded:
C:\users\dg\Desktop\UF\design1\PowerMesh\spice\sim\plc.net
C:\users\dg\AppData\Local\LTspice\lib\cmp\standard.dio
C:\users\dg\Desktop\UF\design1\PowerMesh\spice\sim\TLP785.mod

