LTspice 24.1.9 for Windows
Circuit: C:\users\dg\Desktop\UF\design1\PowerMesh\spice\sim\plc.net
Start Time: Thu Apr  9 15:03:56 2026
C:\users\dg\Desktop\UF\design1\PowerMesh\spice\sim\plc.net(15): Sub-circuit name listed twice. This is most likely because the corresponding symbol contains the name in more than one attribute.
X§U1 N003 N005 N006 N001 TLP785 TLP785
                               ^^^^^^^
solver = Normal
Maximum thread count: 16
tnom = 27
temp = 27
method = trap

Direct Newton iteration failed to find .op point.  (Use ".option noopiter" to skip.)
Starting Gmin stepping
Gmin = 10
Gmin = 1.07374
Gmin = 0.115292
Gmin = 0.0123794
Gmin = 0.00132923
Gmin = 0.000142725
Gmin = 1.5325e-05
Gmin = 1.6455e-06
Gmin = 1.76685e-07
Gmin = 1.89714e-08
Gmin = 2.03704e-09
Gmin = 2.18725e-10
Gmin = 2.34854e-11
Gmin = 2.52173e-12
Gmin = 2.70769e-13
Gmin = 0
Gmin stepping succeeded in finding the operating point.

Warning: Simulation tolerance relaxed to achieve convergence from 1.9595061132704514e-08 to 1.9595061133681076e-08 seconds.
Warning: Simulation tolerance relaxed to achieve convergence from 1.9653778554579447e-08 to 1.9653778555556010e-08 seconds.
Warning: Simulation tolerance relaxed to achieve convergence from 1.9653778555556010e-08 to 1.9653778556532573e-08 seconds.
Warning: Simulation tolerance relaxed to achieve convergence from 1.9938737908094506e-08 to 1.9938737909071069e-08 seconds.
Warning: Simulation tolerance relaxed to achieve convergence from 2.0481928810438164e-08 to 2.0481928811414727e-08 seconds.
Warning: Simulation tolerance relaxed to achieve convergence from 2.0481933932508312e-08 to 2.0481933933484875e-08 seconds.
Warning: Simulation tolerance relaxed to achieve convergence from 2.0530088478407687e-08 to 2.0530088479384250e-08 seconds.
Warning: Simulation tolerance relaxed to achieve convergence from 2.0824103424697974e-08 to 2.0824103425674536e-08 seconds.
Warning: Simulation tolerance relaxed to achieve convergence from 2.0835486846573025e-08 to 2.0835486847549588e-08 seconds.
Warning: Simulation tolerance relaxed to achieve convergence from 2.0865119871963165e-08 to 2.0865119872939728e-08 seconds.
Warning: Simulation tolerance relaxed to achieve convergence from 2.1130711913957404e-08 to 2.1130711914933967e-08 seconds.
Warning: Simulation tolerance relaxed to achieve convergence from 2.1130712190324677e-08 to 2.1130712191301240e-08 seconds.
Warning: Simulation tolerance relaxed to achieve convergence from 2.1130714764544224e-08 to 2.1130714765520787e-08 seconds.
Warning: Simulation tolerance relaxed to achieve convergence from 2.1130715315325644e-08 to 2.1130715316302207e-08 seconds.
Warning: Simulation tolerance relaxed to achieve convergence from 2.1130715342669403e-08 to 2.1130715343645966e-08 seconds.
Warning: Simulation tolerance relaxed to achieve convergence from 2.1130715659075755e-08 to 2.1130715660052318e-08 seconds.
Warning: Simulation tolerance relaxed to achieve convergence from 2.1130720409077029e-08 to 2.1130720410053592e-08 seconds.
Warning: Simulation tolerance relaxed to achieve convergence from 2.1130726460836693e-08 to 2.1130726461813256e-08 seconds.
Warning: Simulation tolerance relaxed to achieve convergence from 2.1130726761617974e-08 to 2.1130726762594537e-08 seconds.
Warning: Simulation tolerance relaxed to achieve convergence from 2.1130728772360579e-08 to 2.1130728773337142e-08 seconds.
Warning: Simulation tolerance relaxed to achieve convergence from 2.1130730794822021e-08 to 2.1130730795798584e-08 seconds.
Warning: Simulation tolerance relaxed to achieve convergence from 2.1130731005759572e-08 to 2.1130731006736135e-08 seconds.
Warning: Simulation tolerance relaxed to achieve convergence from 2.1130731321189354e-08 to 2.1130731322165917e-08 seconds.
Warning: Simulation tolerance relaxed to achieve convergence from 2.1224245071190430e-08 to 2.1224245072166993e-08 seconds.
Warning: Simulation tolerance relaxed to achieve convergence from 2.1224245080956058e-08 to 2.1224245081932621e-08 seconds.
Warning: Simulation tolerance relaxed to achieve convergence from 2.1224245086815435e-08 to 2.1224245087791998e-08 seconds.
Warning: Simulation tolerance relaxed to achieve convergence from 2.1224245109276380e-08 to 2.1224245110252942e-08 seconds.
Warning: Simulation tolerance relaxed to achieve convergence from 2.1224245128807636e-08 to 2.1224245129784199e-08 seconds.
Warning: Simulation tolerance relaxed to achieve convergence from 2.1224245131737324e-08 to 2.1224245132713887e-08 seconds.
Warning: Simulation tolerance relaxed to achieve convergence from 2.1224245135643576e-08 to 2.1224245136620138e-08 seconds.
Warning: Simulation tolerance relaxed to achieve convergence from 2.1224245138573264e-08 to 2.1224245139549827e-08 seconds.
Warning: Simulation tolerance relaxed to achieve convergence from 2.1224245184471716e-08 to 2.1224245185448279e-08 seconds.
Warning: Simulation tolerance relaxed to achieve convergence from 2.1224245238182671e-08 to 2.1224245239159234e-08 seconds.
Warning: Simulation tolerance relaxed to achieve convergence from 2.1224245252831113e-08 to 2.1224245253807676e-08 seconds.
Warning: Simulation tolerance relaxed to achieve convergence from 2.1224245253807676e-08 to 2.1224245254784239e-08 seconds.
Warning: Simulation tolerance relaxed to achieve convergence from 2.1224245287010812e-08 to 2.1224245287987375e-08 seconds.
Warning: Simulation tolerance relaxed to achieve convergence from 2.1224245295799877e-08 to 2.1224245296776440e-08 seconds.
Warning: Simulation tolerance relaxed to achieve convergence from 2.1224245316307696e-08 to 2.1224245317284259e-08 seconds.
Warning: Simulation tolerance relaxed to achieve convergence from 2.1224245359276460e-08 to 2.1224245360253023e-08 seconds.
Warning: Simulation tolerance relaxed to achieve convergence from 2.1224245362206148e-08 to 2.1224245363182711e-08 seconds.
Warning: Simulation tolerance relaxed to achieve convergence from 2.1224245495995247e-08 to 2.1224245496971810e-08 seconds.
Warning: Simulation tolerance relaxed to achieve convergence from 2.1224245549706202e-08 to 2.1224245550682765e-08 seconds.
Warning: Simulation tolerance relaxed to achieve convergence from 2.1224247725488121e-08 to 2.1224247726464684e-08 seconds.
Warning: Simulation tolerance relaxed to achieve convergence from 2.1224247728417810e-08 to 2.1224247729394372e-08 seconds.
Warning: Simulation tolerance relaxed to achieve convergence from 2.1224247745995940e-08 to 2.1224247746972503e-08 seconds.
Warning: Simulation tolerance relaxed to achieve convergence from 2.1224247748925629e-08 to 2.1224247749902192e-08 seconds.
Warning: Simulation tolerance relaxed to achieve convergence from 2.1224247751855317e-08 to 2.1224247752831880e-08 seconds.
Warning: Simulation tolerance relaxed to achieve convergence from 2.1224247768456885e-08 to 2.1224247769433448e-08 seconds.
Warning: Simulation tolerance relaxed to achieve convergence from 2.1224247777245950e-08 to 2.1224247778222513e-08 seconds.
Warning: Simulation tolerance relaxed to achieve convergence from 2.1224247841699096e-08 to 2.1224247842675659e-08 seconds.
Warning: Simulation tolerance relaxed to achieve convergence from 2.1224247901269428e-08 to 2.1224247902245991e-08 seconds.
Warning: Simulation tolerance relaxed to achieve convergence from 2.1224248000878835e-08 to 2.1224248001855398e-08 seconds.
Warning: Simulation tolerance relaxed to achieve convergence from 2.1224248232324179e-08 to 2.1224248233300741e-08 seconds.
Warning: Simulation tolerance relaxed to achieve convergence from 2.1224248422753911e-08 to 2.1224248423730473e-08 seconds.
Warning: Simulation tolerance relaxed to achieve convergence from 2.1224250461816990e-08 to 2.1224250462793552e-08 seconds.
Warning: Simulation tolerance relaxed to achieve convergence from 2.1224250486231060e-08 to 2.1224250487207623e-08 seconds.
Warning: Simulation tolerance relaxed to achieve convergence from 2.1224250497949814e-08 to 2.1224250498926377e-08 seconds.
Warning: Simulation tolerance relaxed to achieve convergence from 2.1224250515527944e-08 to 2.1224250516504507e-08 seconds.
Warning: Simulation tolerance relaxed to achieve convergence from 2.1224250524317010e-08 to 2.1224250525293573e-08 seconds.
Warning: Simulation tolerance relaxed to achieve convergence from 2.1224250537988889e-08 to 2.1224250538965452e-08 seconds.
Warning: Simulation tolerance relaxed to achieve convergence from 2.1224250556543583e-08 to 2.1224250557520145e-08 seconds.
Warning: Simulation tolerance relaxed to achieve convergence from 2.1224250562402959e-08 to 2.1224250563379522e-08 seconds.
Warning: Simulation tolerance relaxed to achieve convergence from 2.1224250568262336e-08 to 2.1224250569238899e-08 seconds.
Warning: Simulation tolerance relaxed to achieve convergence from 2.1224250588770155e-08 to 2.1224250589746718e-08 seconds.
Warning: Simulation tolerance relaxed to achieve convergence from 2.1224250635645171e-08 to 2.1224250636621733e-08 seconds.
Warning: Simulation tolerance relaxed to achieve convergence from 2.1224250762598336e-08 to 2.1224250763574899e-08 seconds.
Warning: Simulation tolerance relaxed to achieve convergence from 2.1224250859278055e-08 to 2.1224250860254618e-08 seconds.
Warning: Simulation tolerance relaxed to achieve convergence from 2.1224252658106721e-08 to 2.1224252659083284e-08 seconds.
Warning: Simulation tolerance relaxed to achieve convergence from 2.1224253212794400e-08 to 2.1224253213770962e-08 seconds.
Warning: Simulation tolerance relaxed to achieve convergence from 2.1224253375880389e-08 to 2.1224253376856952e-08 seconds.
Warning: Simulation tolerance relaxed to achieve convergence from 2.1224253453028852e-08 to 2.1224253454005415e-08 seconds.
Warning: Simulation tolerance relaxed to achieve convergence from 2.1224253488185113e-08 to 2.1224253489161676e-08 seconds.
Warning: Simulation tolerance relaxed to achieve convergence from 2.1224253494044490e-08 to 2.1224253495021053e-08 seconds.
Warning: Simulation tolerance relaxed to achieve convergence from 2.1224253588771083e-08 to 2.1224253589747646e-08 seconds.
Warning: Simulation tolerance relaxed to achieve convergence from 2.1224253597560148e-08 to 2.1224253598536711e-08 seconds.
Warning: Simulation tolerance relaxed to achieve convergence from 2.1224253700099244e-08 to 2.1224253701075806e-08 seconds.
Warning: Simulation tolerance relaxed to achieve convergence from 2.1224255974513994e-08 to 2.1224255975490557e-08 seconds.
Warning: Simulation tolerance relaxed to achieve convergence from 2.1224255977443682e-08 to 2.1224255978420245e-08 seconds.
Warning: Simulation tolerance relaxed to achieve convergence from 2.1224256000881190e-08 to 2.1224256001857753e-08 seconds.
Warning: Simulation tolerance relaxed to achieve convergence from 2.1224256030178074e-08 to 2.1224256031154637e-08 seconds.
Warning: Simulation tolerance relaxed to achieve convergence from 2.1224256031154637e-08 to 2.1224256032131200e-08 seconds.
Warning: Simulation tolerance relaxed to achieve convergence from 2.1224256063381210e-08 to 2.1224256064357773e-08 seconds.
Warning: Simulation tolerance relaxed to achieve convergence from 2.1224256075099964e-08 to 2.1224256076076526e-08 seconds.
Warning: Simulation tolerance relaxed to achieve convergence from 2.1224256200100004e-08 to 2.1224256201076567e-08 seconds.
Warning: Simulation tolerance relaxed to achieve convergence from 2.1224256295803160e-08 to 2.1224256296779722e-08 seconds.
Warning: Simulation tolerance relaxed to achieve convergence from 2.1224256458889146e-08 to 2.1224256459865709e-08 seconds.
Warning: Simulation tolerance relaxed to achieve convergence from 2.1224256514553226e-08 to 2.1224256515529789e-08 seconds.
Warning: Simulation tolerance relaxed to achieve convergence from 2.1224258742092975e-08 to 2.1224258743069538e-08 seconds.
Warning: Simulation tolerance relaxed to achieve convergence from 2.1224258750882040e-08 to 2.1224258751858603e-08 seconds.
Warning: Simulation tolerance relaxed to achieve convergence from 2.1224258767483608e-08 to 2.1224258768460171e-08 seconds.
Warning: Simulation tolerance relaxed to achieve convergence from 2.1224258812405497e-08 to 2.1224258813382060e-08 seconds.
Warning: Simulation tolerance relaxed to achieve convergence from 2.1224258907132090e-08 to 2.1224258908108653e-08 seconds.
Warning: Simulation tolerance relaxed to achieve convergence from 2.1224258925686784e-08 to 2.1224258926663347e-08 seconds.
Warning: Simulation tolerance relaxed to achieve convergence from 2.1224258931546161e-08 to 2.1224258932522724e-08 seconds.
Warning: Simulation tolerance relaxed to achieve convergence from 2.1224258969632110e-08 to 2.1224258970608673e-08 seconds.
Warning: Simulation tolerance relaxed to achieve convergence from 2.1224259065335266e-08 to 2.1224259066311829e-08 seconds.
Warning: Simulation tolerance relaxed to achieve convergence from 2.1224259090725899e-08 to 2.1224259091702462e-08 seconds.
Warning: Simulation tolerance relaxed to achieve convergence from 2.1224261515531326e-08 to 2.1224261516507889e-08 seconds.
Warning: Simulation tolerance relaxed to achieve convergence from 2.1224261518461015e-08 to 2.1224261519437577e-08 seconds.
Warning: Simulation tolerance relaxed to achieve convergence from 2.1224261521390703e-08 to 2.1224261522367266e-08 seconds.
Warning: Simulation tolerance relaxed to achieve convergence from 2.1224261524320391e-08 to 2.1224261525296954e-08 seconds.
Warning: Simulation tolerance relaxed to achieve convergence from 2.1224261530179768e-08 to 2.1224261531156331e-08 seconds.
Warning: Simulation tolerance relaxed to achieve convergence from 2.1224261609281356e-08 to 2.1224261610257919e-08 seconds.
Warning: Simulation tolerance relaxed to achieve convergence from 2.1224261626859487e-08 to 2.1224261627836050e-08 seconds.
Warning: Simulation tolerance relaxed to achieve convergence from 2.1224261654203246e-08 to 2.1224261655179808e-08 seconds.
Warning: Simulation tolerance relaxed to achieve convergence from 2.1224261815336110e-08 to 2.1224261816312673e-08 seconds.
Warning: Simulation tolerance relaxed to achieve convergence from 2.1224261882718944e-08 to 2.1224261883695507e-08 seconds.
Warning: Simulation tolerance relaxed to achieve convergence from 2.1224261976468968e-08 to 2.1224261977445530e-08 seconds.
Warning: Simulation tolerance relaxed to achieve convergence from 2.1224263913969554e-08 to 2.1224263914946116e-08 seconds.
Warning: Simulation tolerance relaxed to achieve convergence from 2.1224264283110297e-08 to 2.1224264284086860e-08 seconds.
Warning: Simulation tolerance relaxed to achieve convergence from 2.1224264313383744e-08 to 2.1224264314360307e-08 seconds.
Warning: Simulation tolerance relaxed to achieve convergence from 2.1224264316313433e-08 to 2.1224264317289996e-08 seconds.
Warning: Simulation tolerance relaxed to achieve convergence from 2.1224264378813453e-08 to 2.1224264379790016e-08 seconds.
Warning: Simulation tolerance relaxed to achieve convergence from 2.1224264414946277e-08 to 2.1224264415922840e-08 seconds.
Warning: Simulation tolerance relaxed to achieve convergence from 2.1224264468657232e-08 to 2.1224264469633795e-08 seconds.
Warning: Simulation tolerance relaxed to achieve convergence from 2.1224264526274438e-08 to 2.1224264527251001e-08 seconds.
Warning: Simulation tolerance relaxed to achieve convergence from 2.1224264725493245e-08 to 2.1224264726469808e-08 seconds.
Warning: Simulation tolerance relaxed to achieve convergence from 2.1224267322173433e-08 to 2.1224267323149996e-08 seconds.
Warning: Simulation tolerance relaxed to achieve convergence from 2.1224269891509799e-08 to 2.1224269892486361e-08 seconds.
Warning: Simulation tolerance relaxed to achieve convergence from 2.1224269914947303e-08 to 2.1224269915923866e-08 seconds.
Warning: Simulation tolerance relaxed to achieve convergence from 2.1224270039947320e-08 to 2.1224270040923883e-08 seconds.
Warning: Simulation tolerance relaxed to achieve convergence from 2.1224270276275491e-08 to 2.1224270277252054e-08 seconds.
Warning: Simulation tolerance relaxed to achieve convergence from 2.1224270418853642e-08 to 2.1224270419830205e-08 seconds.
Warning: Simulation tolerance relaxed to achieve convergence from 2.1224271150299047e-08 to 2.1224271151275610e-08 seconds.
Warning: Simulation tolerance relaxed to achieve convergence from 2.1224272713775874e-08 to 2.1224272714752437e-08 seconds.
Warning: Simulation tolerance relaxed to achieve convergence from 2.1224272923736846e-08 to 2.1224272924713408e-08 seconds.
Warning: Simulation tolerance relaxed to achieve convergence from 2.1224272926666534e-08 to 2.1224272927643097e-08 seconds.
Warning: Simulation tolerance relaxed to achieve convergence from 2.1224273106354065e-08 to 2.1224273107330628e-08 seconds.
Warning: Simulation tolerance relaxed to achieve convergence from 2.1224273121002504e-08 to 2.1224273121979067e-08 seconds.
Warning: Simulation tolerance relaxed to achieve convergence from 2.1224275740143329e-08 to 2.1224275741119892e-08 seconds.
Warning: Simulation tolerance relaxed to achieve convergence from 2.1224275825104277e-08 to 2.1224275826080840e-08 seconds.
Warning: Simulation tolerance relaxed to achieve convergence from 2.1224275849518344e-08 to 2.1224275850494907e-08 seconds.
Warning: Simulation tolerance relaxed to achieve convergence from 2.1224278158112465e-08 to 2.1224278159089028e-08 seconds.
Warning: Simulation tolerance relaxed to achieve convergence from 2.1224278197174978e-08 to 2.1224278198151541e-08 seconds.
Warning: Simulation tolerance relaxed to achieve convergence from 2.1224278202057792e-08 to 2.1224278203034355e-08 seconds.
Warning: Simulation tolerance relaxed to achieve convergence from 2.1224278207917169e-08 to 2.1224278208893731e-08 seconds.
Warning: Simulation tolerance relaxed to achieve convergence from 2.1224278222565611e-08 to 2.1224278223542174e-08 seconds.
Warning: Simulation tolerance relaxed to achieve convergence from 2.1224278225495299e-08 to 2.1224278226471862e-08 seconds.
Warning: Simulation tolerance relaxed to achieve convergence from 2.1224278226471862e-08 to 2.1224278227448425e-08 seconds.
Warning: Simulation tolerance relaxed to achieve convergence from 2.1224278238190616e-08 to 2.1224278239167179e-08 seconds.
Warning: Simulation tolerance relaxed to achieve convergence from 2.1224278253815621e-08 to 2.1224278254792184e-08 seconds.
Warning: Simulation tolerance relaxed to achieve convergence from 2.1224278254792184e-08 to 2.1224278255768747e-08 seconds.
Warning: Simulation tolerance relaxed to achieve convergence from 2.1224278301667199e-08 to 2.1224278302643762e-08 seconds.
Warning: Simulation tolerance relaxed to achieve convergence from 2.1224278310456264e-08 to 2.1224278311432827e-08 seconds.
Warning: Simulation tolerance relaxed to achieve convergence from 2.1224278332917209e-08 to 2.1224278333893772e-08 seconds.
Warning: Simulation tolerance relaxed to achieve convergence from 2.1224278335846897e-08 to 2.1224278336823460e-08 seconds.
Warning: Simulation tolerance relaxed to achieve convergence from 2.1224278347565651e-08 to 2.1224278348542214e-08 seconds.
Warning: Simulation tolerance relaxed to achieve convergence from 2.1224278423737544e-08 to 2.1224278424714107e-08 seconds.
Warning: Simulation tolerance relaxed to achieve convergence from 2.1224278461823494e-08 to 2.1224278462800056e-08 seconds.
Warning: Simulation tolerance relaxed to achieve convergence from 2.1224278636628224e-08 to 2.1224278637604787e-08 seconds.
Warning: Simulation tolerance relaxed to achieve convergence from 2.1224280841706952e-08 to 2.1224280842683514e-08 seconds.
Warning: Simulation tolerance relaxed to achieve convergence from 2.1224280848542891e-08 to 2.1224280849519454e-08 seconds.
Warning: Simulation tolerance relaxed to achieve convergence from 2.1224280851472580e-08 to 2.1224280852449143e-08 seconds.
Warning: Simulation tolerance relaxed to achieve convergence from 2.1224280912996034e-08 to 2.1224280913972596e-08 seconds.
Warning: Simulation tolerance relaxed to achieve convergence from 2.1224280922761662e-08 to 2.1224280923738225e-08 seconds.
Warning: Simulation tolerance relaxed to achieve convergence from 2.1224280934480416e-08 to 2.1224280935456978e-08 seconds.
Warning: Simulation tolerance relaxed to achieve convergence from 2.1224280947175732e-08 to 2.1224280948152295e-08 seconds.
Warning: Simulation tolerance relaxed to achieve convergence from 2.1224280950105421e-08 to 2.1224280951081983e-08 seconds.
Warning: Simulation tolerance relaxed to achieve convergence from 2.1224280980378868e-08 to 2.1224280981355431e-08 seconds.
Warning: Simulation tolerance relaxed to achieve convergence from 2.1224280999910124e-08 to 2.1224281000886687e-08 seconds.
Warning: Simulation tolerance relaxed to achieve convergence from 2.1224281005769501e-08 to 2.1224281006746064e-08 seconds.
Warning: Simulation tolerance relaxed to achieve convergence from 2.1224281017488255e-08 to 2.1224281018464818e-08 seconds.
Warning: Simulation tolerance relaxed to achieve convergence from 2.1224281038972637e-08 to 2.1224281039949199e-08 seconds.
Warning: Simulation tolerance relaxed to achieve convergence from 2.1224281227449240e-08 to 2.1224281228425803e-08 seconds.
Warning: Simulation tolerance relaxed to achieve convergence from 2.1224283513582578e-08 to 2.1224283514559141e-08 seconds.
Warning: Simulation tolerance relaxed to achieve convergence from 2.1224283561434150e-08 to 2.1224283562410712e-08 seconds.
Warning: Simulation tolerance relaxed to achieve convergence from 2.1314285926668503e-08 to 2.1314285927645066e-08 seconds.
Warning: Simulation tolerance relaxed to achieve convergence from 2.1314286320223314e-08 to 2.1314286321199877e-08 seconds.
Warning: Simulation tolerance relaxed to achieve convergence from 2.1314288074130121e-08 to 2.1314288075106683e-08 seconds.
Warning: Simulation tolerance relaxed to achieve convergence from 2.1314288159091085e-08 to 2.1314288160067648e-08 seconds.
Warning: Simulation tolerance relaxed to achieve convergence from 2.1314289068271019e-08 to 2.1314289069247581e-08 seconds.
Warning: Simulation tolerance relaxed to achieve convergence from 2.1314289112216332e-08 to 2.1314289113192895e-08 seconds.
Warning: Simulation tolerance relaxed to achieve convergence from 2.1314293572177802e-08 to 2.1314293573154365e-08 seconds.
Warning: Simulation tolerance relaxed to achieve convergence from 2.1314293783115370e-08 to 2.1314293784091933e-08 seconds.
Warning: Simulation tolerance relaxed to achieve convergence from 2.1314293942295109e-08 to 2.1314293943271672e-08 seconds.
Warning: Simulation tolerance relaxed to achieve convergence from 2.1314294440342140e-08 to 2.1314294441318703e-08 seconds.
Warning: Simulation tolerance relaxed to achieve convergence from 2.1314294501865598e-08 to 2.1314294502842161e-08 seconds.
Warning: Simulation tolerance relaxed to achieve convergence from 2.1314295955967604e-08 to 2.1314295956944167e-08 seconds.
Warning: Simulation tolerance relaxed to achieve convergence from 2.1314297811436927e-08 to 2.1314297812413490e-08 seconds.
Warning: Simulation tolerance relaxed to achieve convergence from 2.1314298189366736e-08 to 2.1314298190343299e-08 seconds.
Warning: Simulation tolerance relaxed to achieve convergence from 2.1314298571202783e-08 to 2.1314298572179346e-08 seconds.
Warning: Simulation tolerance relaxed to achieve convergence from 2.1526196302649058e-08 to 2.1526196303625620e-08 seconds.
Warning: Simulation tolerance relaxed to achieve convergence from 2.1561973486243041e-08 to 2.1561973487219604e-08 seconds.
Warning: Simulation tolerance relaxed to achieve convergence from 2.1567390270422788e-08 to 2.1567390271399351e-08 seconds.
Warning: Simulation tolerance relaxed to achieve convergence from 2.1567390272375914e-08 to 2.1567390273352477e-08 seconds.
Warning: Simulation tolerance relaxed to achieve convergence from 2.1567390275305602e-08 to 2.1567390276282165e-08 seconds.
Warning: Simulation tolerance relaxed to achieve convergence from 2.1580372508704190e-08 to 2.1580372509680753e-08 seconds.
Warning: Simulation tolerance relaxed to achieve convergence from 2.1623696107337373e-08 to 2.1623696108313936e-08 seconds.
Warning: Simulation tolerance relaxed to achieve convergence from 2.1626149136634153e-08 to 2.1626149137610715e-08 seconds.
Warning: Simulation tolerance relaxed to achieve convergence from 2.1626150403235679e-08 to 2.1626150404212241e-08 seconds.
Warning: Simulation tolerance relaxed to achieve convergence from 2.1640831282141368e-08 to 2.1640831283117931e-08 seconds.
Warning: Simulation tolerance relaxed to achieve convergence from 2.1722687364174379e-08 to 2.1722687365150942e-08 seconds.
Warning: Simulation tolerance relaxed to achieve convergence from 2.1866999727457871e-08 to 2.1866999728434434e-08 seconds.
Warning: Simulation tolerance relaxed to achieve convergence from 2.1869482231364178e-08 to 2.1869482232340741e-08 seconds.
Warning: Simulation tolerance relaxed to achieve convergence from 2.1995306064374072e-08 to 2.1995306065350634e-08 seconds.
Warning: Simulation tolerance relaxed to achieve convergence from 2.2161445932538248e-08 to 2.2161445933514811e-08 seconds.
Warning: Simulation tolerance relaxed to achieve convergence from 2.2231634919843134e-08 to 2.2231634920819697e-08 seconds.
Warning: Simulation tolerance relaxed to achieve convergence from 2.2280462743086265e-08 to 2.2280462744062828e-08 seconds.
Warning: Simulation tolerance relaxed to achieve convergence from 2.2280463474531813e-08 to 2.2280463475508375e-08 seconds.
Warning: Simulation tolerance relaxed to achieve convergence from 2.2280466329024818e-08 to 2.2280466330001381e-08 seconds.
Warning: Simulation tolerance relaxed to achieve convergence from 2.2280468366134334e-08 to 2.2280468367110897e-08 seconds.
Warning: Simulation tolerance relaxed to achieve convergence from 2.2344693554613120e-08 to 2.2344693555589683e-08 seconds.
Warning: Simulation tolerance relaxed to achieve convergence from 2.2344698205981706e-08 to 2.2344698206958269e-08 seconds.
Warning: Simulation tolerance relaxed to achieve convergence from 2.2344703404225481e-08 to 2.2344703405202044e-08 seconds.
Warning: Simulation tolerance relaxed to achieve convergence from 2.2344713910087741e-08 to 2.2344713911064304e-08 seconds.
Warning: Simulation tolerance relaxed to achieve convergence from 2.2344714015556522e-08 to 2.2344714016533085e-08 seconds.
Warning: Simulation tolerance relaxed to achieve convergence from 2.2384385133723203e-08 to 2.2384385134699766e-08 seconds.
Warning: Simulation tolerance relaxed to achieve convergence from 2.2400157802668425e-08 to 2.2400157803644987e-08 seconds.
Warning: Simulation tolerance relaxed to achieve convergence from 2.2400165049738508e-08 to 2.2400165050715070e-08 seconds.
Warning: Simulation tolerance relaxed to achieve convergence from 2.2403106260675941e-08 to 2.2403106261652504e-08 seconds.
Warning: Simulation tolerance relaxed to achieve convergence from 2.2408264701105641e-08 to 2.2408264702082203e-08 seconds.
Warning: Simulation tolerance relaxed to achieve convergence from 2.2408264722590019e-08 to 2.2408264723566582e-08 seconds.
Warning: Simulation tolerance relaxed to achieve convergence from 2.2408264726496270e-08 to 2.2408264727472833e-08 seconds.
Warning: Simulation tolerance relaxed to achieve convergence from 2.2411035573176124e-08 to 2.2411035574152686e-08 seconds.
Warning: Simulation tolerance relaxed to achieve convergence from 2.2661347310484594e-08 to 2.2661347311461157e-08 seconds.
Warning: Simulation tolerance relaxed to achieve convergence from 2.2705800892515259e-08 to 2.2705800893491822e-08 seconds.
Warning: Simulation tolerance relaxed to achieve convergence from 2.2705800893491822e-08 to 2.2705800894468385e-08 seconds.
Warning: Simulation tolerance relaxed to achieve convergence from 2.2713232029234734e-08 to 2.2713232030211297e-08 seconds.
Warning: Simulation tolerance relaxed to achieve convergence from 2.2947003241156479e-08 to 2.2947003242133041e-08 seconds.
Warning: Simulation tolerance relaxed to achieve convergence from 2.2947005932563534e-08 to 2.2947005933540096e-08 seconds.
Warning: Simulation tolerance relaxed to achieve convergence from 2.3061423919871007e-08 to 2.3061423920847570e-08 seconds.
Warning: Simulation tolerance relaxed to achieve convergence from 2.3061426219676318e-08 to 2.3061426220652881e-08 seconds.
Warning: Simulation tolerance relaxed to achieve convergence from 2.3061433914990351e-08 to 2.3061433915966913e-08 seconds.
Warning: Simulation tolerance relaxed to achieve convergence from 2.3061435849561255e-08 to 2.3061435850537818e-08 seconds.
Warning: Simulation tolerance relaxed to achieve convergence from 2.3061436769483412e-08 to 2.3061436770459975e-08 seconds.
Warning: Simulation tolerance relaxed to achieve convergence from 2.3061438298780742e-08 to 2.3061438299757305e-08 seconds.
Warning: Simulation tolerance relaxed to achieve convergence from 2.3061440142531318e-08 to 2.3061440143507881e-08 seconds.
Warning: Simulation tolerance relaxed to achieve convergence from 2.3061448304641174e-08 to 2.3061448305617737e-08 seconds.
Warning: Simulation tolerance relaxed to achieve convergence from 2.3061448490188109e-08 to 2.3061448491164672e-08 seconds.
Warning: Simulation tolerance relaxed to achieve convergence from 2.3119040019484811e-08 to 2.3119040020461374e-08 seconds.
Warning: Simulation tolerance relaxed to achieve convergence from 2.3161286103469869e-08 to 2.3161286104446432e-08 seconds.
Warning: Simulation tolerance relaxed to achieve convergence from 2.3188700626907484e-08 to 2.3188700627884047e-08 seconds.
Warning: Simulation tolerance relaxed to achieve convergence from 2.3383015125934185e-08 to 2.3383015126910748e-08 seconds.
Warning: Simulation tolerance relaxed to achieve convergence from 2.3398387059528499e-08 to 2.3398387060505062e-08 seconds.
Warning: Simulation tolerance relaxed to achieve convergence from 2.3398387474567695e-08 to 2.3398387475544258e-08 seconds.
Warning: Simulation tolerance relaxed to achieve convergence from 2.3509440797813527e-08 to 2.3509440798790090e-08 seconds.
Warning: Simulation tolerance relaxed to achieve convergence from 2.3509462053676214e-08 to 2.3509462054652777e-08 seconds.
Warning: Simulation tolerance relaxed to achieve convergence from 2.3537155975551454e-08 to 2.3537155976528017e-08 seconds.
Warning: Simulation tolerance relaxed to achieve convergence from 2.3564868930629984e-08 to 2.3564868931606547e-08 seconds.
Warning: Simulation tolerance relaxed to achieve convergence from 2.3564868931606547e-08 to 2.3564868932583110e-08 seconds.
Warning: Simulation tolerance relaxed to achieve convergence from 2.3564868932583110e-08 to 2.3564868933559673e-08 seconds.
Warning: Simulation tolerance relaxed to achieve convergence from 2.3564868933559673e-08 to 2.3564868934536236e-08 seconds.
Warning: Simulation tolerance relaxed to achieve convergence from 2.3564868934536236e-08 to 2.3564868935512798e-08 seconds.
Warning: Simulation tolerance relaxed to achieve convergence from 2.3564868935512798e-08 to 2.3564868936489361e-08 seconds.
Warning: Simulation tolerance relaxed to achieve convergence from 2.3564868936489361e-08 to 2.3564868937465924e-08 seconds.
Warning: Simulation tolerance relaxed to achieve convergence from 2.3564868937465924e-08 to 2.3564868938442487e-08 seconds.
Warning: Simulation tolerance relaxed to achieve convergence from 2.3564868938442487e-08 to 2.3564868939419050e-08 seconds.
Warning: Simulation tolerance relaxed to achieve convergence from 2.3564868939419050e-08 to 2.3564868940395613e-08 seconds.
Warning: Simulation tolerance relaxed to achieve convergence from 2.3564868940395613e-08 to 2.3564868941372175e-08 seconds.
Warning: Simulation tolerance relaxed to achieve convergence from 2.3564868941372175e-08 to 2.3564868942348738e-08 seconds.
Warning: Simulation tolerance relaxed to achieve convergence from 2.3564868942348738e-08 to 2.3564868943325301e-08 seconds.
Warning: Simulation tolerance relaxed to achieve convergence from 2.3564868943325301e-08 to 2.3564868944301864e-08 seconds.
Warning: Simulation tolerance relaxed to achieve convergence from 2.3564868944301864e-08 to 2.3564868945278427e-08 seconds.
Warning: Simulation tolerance relaxed to achieve convergence from 2.3564868945278427e-08 to 2.3564868946254989e-08 seconds.
Warning: Simulation tolerance relaxed to achieve convergence from 2.3564868946254989e-08 to 2.3564868947231552e-08 seconds.
Warning: Simulation tolerance relaxed to achieve convergence from 2.3564868947231552e-08 to 2.3564868948208115e-08 seconds.
Warning: Simulation tolerance relaxed to achieve convergence from 2.3564868948208115e-08 to 2.3564868949184678e-08 seconds.
Warning: Simulation tolerance relaxed to achieve convergence from 2.3564868949184678e-08 to 2.3564868950161241e-08 seconds.
Warning: Simulation tolerance relaxed to achieve convergence from 2.3564868950161241e-08 to 2.3564868951137803e-08 seconds.
Warning: Simulation tolerance relaxed to achieve convergence from 2.3564868951137803e-08 to 2.3564868952114366e-08 seconds.
Warning: Simulation tolerance relaxed to achieve convergence from 2.3564868952114366e-08 to 2.3564868953090929e-08 seconds.
Warning: Simulation tolerance relaxed to achieve convergence from 2.3564868953090929e-08 to 2.3564868954067492e-08 seconds.
Warning: Simulation tolerance relaxed to achieve convergence from 2.3564868954067492e-08 to 2.3564868955044055e-08 seconds.
Warning: Simulation tolerance relaxed to achieve convergence from 2.3564868955044055e-08 to 2.3564868956020618e-08 seconds.
Warning: Simulation tolerance relaxed to achieve convergence from 2.3564868956020618e-08 to 2.3564868956997180e-08 seconds.
Warning: Simulation tolerance relaxed to achieve convergence from 2.3564868956997180e-08 to 2.3564868957973743e-08 seconds.
Warning: Simulation tolerance relaxed to achieve convergence from 2.3564868957973743e-08 to 2.3564868958950306e-08 seconds.
Warning: Simulation tolerance relaxed to achieve convergence from 2.3564868958950306e-08 to 2.3564868959926869e-08 seconds.
Warning: Simulation tolerance relaxed to achieve convergence from 2.3564868959926869e-08 to 2.3564868960903432e-08 seconds.
Warning: Simulation tolerance relaxed to achieve convergence from 2.3564868960903432e-08 to 2.3564868961879994e-08 seconds.
Warning: Simulation tolerance relaxed to achieve convergence from 2.3564868961879994e-08 to 2.3564868962856557e-08 seconds.
Warning: Simulation tolerance relaxed to achieve convergence from 2.3564868962856557e-08 to 2.3564868963833120e-08 seconds.
Warning: Simulation tolerance relaxed to achieve convergence from 2.3564868963833120e-08 to 2.3564868964809683e-08 seconds.
Warning: Simulation tolerance relaxed to achieve convergence from 2.3564868964809683e-08 to 2.3564868965786246e-08 seconds.
Warning: Simulation tolerance relaxed to achieve convergence from 2.3564868965786246e-08 to 2.3564868966762808e-08 seconds.
Warning: Simulation tolerance relaxed to achieve convergence from 2.3564868966762808e-08 to 2.3564868967739371e-08 seconds.
Warning: Simulation tolerance relaxed to achieve convergence from 2.3564868967739371e-08 to 2.3564868968715934e-08 seconds.
Warning: Simulation tolerance relaxed to achieve convergence from 2.3564868968715934e-08 to 2.3564868969692497e-08 seconds.
Warning: Simulation tolerance relaxed to achieve convergence from 2.3564868969692497e-08 to 2.3564868970669060e-08 seconds.
Warning: Simulation tolerance relaxed to achieve convergence from 2.3564868970669060e-08 to 2.3564868971645623e-08 seconds.
Warning: Simulation tolerance relaxed to achieve convergence from 2.3564868971645623e-08 to 2.3564868972622185e-08 seconds.
Warning: Simulation tolerance relaxed to achieve convergence from 2.3564868972622185e-08 to 2.3564868973598748e-08 seconds.
Warning: Simulation tolerance relaxed to achieve convergence from 2.3564868973598748e-08 to 2.3564868974575311e-08 seconds.
Warning: Simulation tolerance relaxed to achieve convergence from 2.3564868974575311e-08 to 2.3564868975551874e-08 seconds.
Warning: Simulation tolerance relaxed to achieve convergence from 2.3564868975551874e-08 to 2.3564868976528437e-08 seconds.
Warning: Simulation tolerance relaxed to achieve convergence from 2.3564868976528437e-08 to 2.3564868977504999e-08 seconds.
Warning: Simulation tolerance relaxed to achieve convergence from 2.3564868977504999e-08 to 2.3564868978481562e-08 seconds.
Warning: Simulation tolerance relaxed to achieve convergence from 2.3564868978481562e-08 to 2.3564868979458125e-08 seconds.
Warning: Simulation tolerance relaxed to achieve convergence from 2.3564868979458125e-08 to 2.3564868980434688e-08 seconds.
Warning: Simulation tolerance relaxed to achieve convergence from 2.3564868980434688e-08 to 2.3564868981411251e-08 seconds.
Warning: Simulation tolerance relaxed to achieve convergence from 2.3564868981411251e-08 to 2.3564868982387814e-08 seconds.
Warning: Simulation tolerance relaxed to achieve convergence from 2.3564868982387814e-08 to 2.3564868983364376e-08 seconds.
Warning: Simulation tolerance relaxed to achieve convergence from 2.3564868983364376e-08 to 2.3564868984340939e-08 seconds.
Warning: Simulation tolerance relaxed to achieve convergence from 2.3564868984340939e-08 to 2.3564868985317502e-08 seconds.
Warning: Simulation tolerance relaxed to achieve convergence from 2.3564868985317502e-08 to 2.3564868986294065e-08 seconds.
Warning: Simulation tolerance relaxed to achieve convergence from 2.3564868986294065e-08 to 2.3564868987270628e-08 seconds.
Warning: Simulation tolerance relaxed to achieve convergence from 2.3564868987270628e-08 to 2.3564868988247190e-08 seconds.
Warning: Simulation tolerance relaxed to achieve convergence from 2.3564868988247190e-08 to 2.3564868989223753e-08 seconds.
Warning: Simulation tolerance relaxed to achieve convergence from 2.3564868989223753e-08 to 2.3564868990200316e-08 seconds.
Warning: Simulation tolerance relaxed to achieve convergence from 2.3564868990200316e-08 to 2.3564868991176879e-08 seconds.
Warning: Simulation tolerance relaxed to achieve convergence from 2.3564868991176879e-08 to 2.3564868992153442e-08 seconds.
Warning: Simulation tolerance relaxed to achieve convergence from 2.3564868992153442e-08 to 2.3564868993130004e-08 seconds.
Warning: Simulation tolerance relaxed to achieve convergence from 2.3564868993130004e-08 to 2.3564868994106567e-08 seconds.
Warning: Simulation tolerance relaxed to achieve convergence from 2.3564868994106567e-08 to 2.3564868995083130e-08 seconds.
Warning: Simulation tolerance relaxed to achieve convergence from 2.3564868995083130e-08 to 2.3564868996059693e-08 seconds.
Warning: Simulation tolerance relaxed to achieve convergence from 2.3564868996059693e-08 to 2.3564868997036256e-08 seconds.
Warning: Simulation tolerance relaxed to achieve convergence from 2.3564868997036256e-08 to 2.3564868998012819e-08 seconds.
Warning: Simulation tolerance relaxed to achieve convergence from 2.3564868998012819e-08 to 2.3564868998989381e-08 seconds.
Warning: Simulation tolerance relaxed to achieve convergence from 2.3564868998989381e-08 to 2.3564868999965944e-08 seconds.
Warning: Simulation tolerance relaxed to achieve convergence from 2.3564868999965944e-08 to 2.3564869000942507e-08 seconds.
Warning: Simulation tolerance relaxed to achieve convergence from 2.3564869000942507e-08 to 2.3564869001919070e-08 seconds.
Warning: Simulation tolerance relaxed to achieve convergence from 2.3564869001919070e-08 to 2.3564869002895633e-08 seconds.
Warning: Simulation tolerance relaxed to achieve convergence from 2.3564869002895633e-08 to 2.3564869003872195e-08 seconds.
Warning: Simulation tolerance relaxed to achieve convergence from 2.3564869003872195e-08 to 2.3564869004848758e-08 seconds.
Warning: Simulation tolerance relaxed to achieve convergence from 2.3564869004848758e-08 to 2.3564869005825321e-08 seconds.
Warning: Simulation tolerance relaxed to achieve convergence from 2.3564869005825321e-08 to 2.3564869006801884e-08 seconds.
Warning: Simulation tolerance relaxed to achieve convergence from 2.3564869006801884e-08 to 2.3564869007778447e-08 seconds.
Warning: Simulation tolerance relaxed to achieve convergence from 2.3564869007778447e-08 to 2.3564869008755009e-08 seconds.
Warning: Simulation tolerance relaxed to achieve convergence from 2.3564869008755009e-08 to 2.3564869009731572e-08 seconds.
Warning: Simulation tolerance relaxed to achieve convergence from 2.3564869009731572e-08 to 2.3564869010708135e-08 seconds.
Warning: Simulation tolerance relaxed to achieve convergence from 2.3564869010708135e-08 to 2.3564869011684698e-08 seconds.
Warning: Simulation tolerance relaxed to achieve convergence from 2.3564869011684698e-08 to 2.3564869012661261e-08 seconds.
Warning: Simulation tolerance relaxed to achieve convergence from 2.3564869012661261e-08 to 2.3564869013637824e-08 seconds.
Warning: Simulation tolerance relaxed to achieve convergence from 2.3564869013637824e-08 to 2.3564869014614386e-08 seconds.
Warning: Simulation tolerance relaxed to achieve convergence from 2.3564869014614386e-08 to 2.3564869015590949e-08 seconds.
Warning: Simulation tolerance relaxed to achieve convergence from 2.3564869015590949e-08 to 2.3564869016567512e-08 seconds.
Warning: Simulation tolerance relaxed to achieve convergence from 2.3564869016567512e-08 to 2.3564869017544075e-08 seconds.
Warning: Simulation tolerance relaxed to achieve convergence from 2.3564869017544075e-08 to 2.3564869018520638e-08 seconds.
Warning: Simulation tolerance relaxed to achieve convergence from 2.3564869018520638e-08 to 2.3564869019497200e-08 seconds.
Warning: Simulation tolerance relaxed to achieve convergence from 2.3564869019497200e-08 to 2.3564869020473763e-08 seconds.
Warning: Simulation tolerance relaxed to achieve convergence from 2.3564869020473763e-08 to 2.3564869021450326e-08 seconds.
Warning: Simulation tolerance relaxed to achieve convergence from 2.3564869021450326e-08 to 2.3564869022426889e-08 seconds.
Warning: Simulation tolerance relaxed to achieve convergence from 2.3564869022426889e-08 to 2.3564869023403452e-08 seconds.
Warning: Simulation tolerance relaxed to achieve convergence from 2.3564869023403452e-08 to 2.3564869024380015e-08 seconds.
Warning: Simulation tolerance relaxed to achieve convergence from 2.3564869024380015e-08 to 2.3564869025356577e-08 seconds.
Warning: Simulation tolerance relaxed to achieve convergence from 2.3564869025356577e-08 to 2.3564869026333140e-08 seconds.
Warning: Simulation tolerance relaxed to achieve convergence from 2.3564869026333140e-08 to 2.3564869027309703e-08 seconds.
Warning: Simulation tolerance relaxed to achieve convergence from 2.3564869027309703e-08 to 2.3564869028286266e-08 seconds.
Warning: Simulation tolerance relaxed to achieve convergence from 2.3564869028286266e-08 to 2.3564869029262829e-08 seconds.
Warning: Simulation tolerance relaxed to achieve convergence from 2.3564869029262829e-08 to 2.3564869030239391e-08 seconds.
Warning: Simulation tolerance relaxed to achieve convergence from 2.3564869030239391e-08 to 2.3564869031215954e-08 seconds.
Warning: Simulation tolerance relaxed to achieve convergence from 2.3564869031215954e-08 to 2.3564869032192517e-08 seconds.
Warning: Simulation tolerance relaxed to achieve convergence from 2.3564869032192517e-08 to 2.3564869033169080e-08 seconds.
Warning: Simulation tolerance relaxed to achieve convergence from 2.3564869033169080e-08 to 2.3564869034145643e-08 seconds.
Warning: Simulation tolerance relaxed to achieve convergence from 2.3564869034145643e-08 to 2.3564869035122205e-08 seconds.
Warning: Simulation tolerance relaxed to achieve convergence from 2.3564869035122205e-08 to 2.3564869036098768e-08 seconds.
Warning: Simulation tolerance relaxed to achieve convergence from 2.3564869036098768e-08 to 2.3564869037075331e-08 seconds.
Warning: Simulation tolerance relaxed to achieve convergence from 2.3564869037075331e-08 to 2.3564869038051894e-08 seconds.
Warning: Simulation tolerance relaxed to achieve convergence from 2.3564869038051894e-08 to 2.3564869039028457e-08 seconds.
Warning: Simulation tolerance relaxed to achieve convergence from 2.3564869039028457e-08 to 2.3564869040005020e-08 seconds.
Warning: Simulation tolerance relaxed to achieve convergence from 2.3564869040005020e-08 to 2.3564869040981582e-08 seconds.
Warning: Simulation tolerance relaxed to achieve convergence from 2.3564869040981582e-08 to 2.3564869041958145e-08 seconds.
Warning: Simulation tolerance relaxed to achieve convergence from 2.3564869041958145e-08 to 2.3564869042934708e-08 seconds.
Warning: Simulation tolerance relaxed to achieve convergence from 2.3564869042934708e-08 to 2.3564869043911271e-08 seconds.
Warning: Simulation tolerance relaxed to achieve convergence from 2.3564869043911271e-08 to 2.3564869044887834e-08 seconds.
Warning: Simulation tolerance relaxed to achieve convergence from 2.3564869044887834e-08 to 2.3564869045864396e-08 seconds.
Warning: Simulation tolerance relaxed to achieve convergence from 2.3564869045864396e-08 to 2.3564869046840959e-08 seconds.
Warning: Simulation tolerance relaxed to achieve convergence from 2.3564869046840959e-08 to 2.3564869047817522e-08 seconds.
Warning: Simulation tolerance relaxed to achieve convergence from 2.3564869047817522e-08 to 2.3564869048794085e-08 seconds.
Warning: Simulation tolerance relaxed to achieve convergence from 2.3564869048794085e-08 to 2.3564869049770648e-08 seconds.
Warning: Simulation tolerance relaxed to achieve convergence from 2.3564869049770648e-08 to 2.3564869050747210e-08 seconds.
Warning: Simulation tolerance relaxed to achieve convergence from 2.3564869050747210e-08 to 2.3564869051723773e-08 seconds.
Warning: Simulation tolerance relaxed to achieve convergence from 2.3564869051723773e-08 to 2.3564869052700336e-08 seconds.
Warning: Simulation tolerance relaxed to achieve convergence from 2.3564869052700336e-08 to 2.3564869053676899e-08 seconds.
Warning: Simulation tolerance relaxed to achieve convergence from 2.3564869053676899e-08 to 2.3564869054653462e-08 seconds.
Warning: Simulation tolerance relaxed to achieve convergence from 2.3564869054653462e-08 to 2.3564869055630025e-08 seconds.
Warning: Simulation tolerance relaxed to achieve convergence from 2.3564869055630025e-08 to 2.3564869056606587e-08 seconds.
Warning: Simulation tolerance relaxed to achieve convergence from 2.3564869056606587e-08 to 2.3564869057583150e-08 seconds.
Warning: Simulation tolerance relaxed to achieve convergence from 2.3564869057583150e-08 to 2.3564869058559713e-08 seconds.
Warning: Simulation tolerance relaxed to achieve convergence from 2.3564869058559713e-08 to 2.3564869059536276e-08 seconds.
Warning: Simulation tolerance relaxed to achieve convergence from 2.3564869061489401e-08 to 2.3564869062465964e-08 seconds.
Warning: Simulation tolerance relaxed to achieve convergence from 2.3564869062465964e-08 to 2.3564869063442527e-08 seconds.
Warning: Simulation tolerance relaxed to achieve convergence from 2.3564869063442527e-08 to 2.3564869064419090e-08 seconds.
Warning: Simulation tolerance relaxed to achieve convergence from 2.3564869064419090e-08 to 2.3564869065395653e-08 seconds.
Warning: Simulation tolerance relaxed to achieve convergence from 2.3564869065395653e-08 to 2.3564869066372215e-08 seconds.
Warning: Simulation tolerance relaxed to achieve convergence from 2.3564869066372215e-08 to 2.3564869067348778e-08 seconds.
Warning: Simulation tolerance relaxed to achieve convergence from 2.3564869067348778e-08 to 2.3564869068325341e-08 seconds.
Warning: Simulation tolerance relaxed to achieve convergence from 2.3564869068325341e-08 to 2.3564869069301904e-08 seconds.
Warning: Simulation tolerance relaxed to achieve convergence from 2.3564869069301904e-08 to 2.3564869070278467e-08 seconds.
Warning: Simulation tolerance relaxed to achieve convergence from 2.3564869070278467e-08 to 2.3564869071255030e-08 seconds.
Warning: Simulation tolerance relaxed to achieve convergence from 2.3564869071255030e-08 to 2.3564869072231592e-08 seconds.
Warning: Simulation tolerance relaxed to achieve convergence from 2.3564869072231592e-08 to 2.3564869073208155e-08 seconds.
Warning: Simulation tolerance relaxed to achieve convergence from 2.3564869075161281e-08 to 2.3564869076137844e-08 seconds.
Warning: Simulation tolerance relaxed to achieve convergence from 2.3564869077114406e-08 to 2.3564869078090969e-08 seconds.
Warning: Simulation tolerance relaxed to achieve convergence from 2.3564869078090969e-08 to 2.3564869079067532e-08 seconds.
Warning: Simulation tolerance relaxed to achieve convergence from 2.3564869079067532e-08 to 2.3564869080044095e-08 seconds.
Warning: Simulation tolerance relaxed to achieve convergence from 2.3564869080044095e-08 to 2.3564869081020658e-08 seconds.
Warning: Simulation tolerance relaxed to achieve convergence from 2.3564869081020658e-08 to 2.3564869081997221e-08 seconds.
Warning: Simulation tolerance relaxed to achieve convergence from 2.3564869083950346e-08 to 2.3564869084926909e-08 seconds.
Warning: Simulation tolerance relaxed to achieve convergence from 2.3564869100551911e-08 to 2.3564869101528473e-08 seconds.
Warning: Simulation tolerance relaxed to achieve convergence from 2.3564869104458162e-08 to 2.3564869105434725e-08 seconds.
Warning: Simulation tolerance relaxed to achieve convergence from 2.3564869105434725e-08 to 2.3564869106411288e-08 seconds.
Warning: Simulation tolerance relaxed to achieve convergence from 2.3564869118130041e-08 to 2.3564869119106604e-08 seconds.
Warning: Simulation tolerance relaxed to achieve convergence from 2.3564869119106604e-08 to 2.3564869120083167e-08 seconds.
Warning: Simulation tolerance relaxed to achieve convergence from 2.3564869123012855e-08 to 2.3564869123989418e-08 seconds.
Warning: Simulation tolerance relaxed to achieve convergence from 2.3564869151333170e-08 to 2.3564869152309733e-08 seconds.
Warning: Simulation tolerance relaxed to achieve convergence from 2.3564869167934735e-08 to 2.3564869168911298e-08 seconds.
Warning: Simulation tolerance relaxed to achieve convergence from 2.3564869200161301e-08 to 2.3564869201137864e-08 seconds.
Warning: Simulation tolerance relaxed to achieve convergence from 2.3564869201137864e-08 to 2.3564869202114427e-08 seconds.
Warning: Simulation tolerance relaxed to achieve convergence from 2.3564869211880055e-08 to 2.3564869212856618e-08 seconds.
Warning: Simulation tolerance relaxed to achieve convergence from 2.3564869212856618e-08 to 2.3564869213833181e-08 seconds.
Warning: Simulation tolerance relaxed to achieve convergence from 2.3564869247036310e-08 to 2.3564869248012872e-08 seconds.
Warning: Simulation tolerance relaxed to achieve convergence from 2.3564869248989435e-08 to 2.3564869249965998e-08 seconds.
Warning: Simulation tolerance relaxed to achieve convergence from 2.3564869265591000e-08 to 2.3564869266567563e-08 seconds.
Warning: Simulation tolerance relaxed to achieve convergence from 2.3564869283169127e-08 to 2.3564869284145690e-08 seconds.
Warning: Simulation tolerance relaxed to achieve convergence from 2.3564869285122253e-08 to 2.3564869286098815e-08 seconds.
Warning: Simulation tolerance relaxed to achieve convergence from 2.3564869286098815e-08 to 2.3564869287075378e-08 seconds.
Warning: Simulation tolerance relaxed to achieve convergence from 2.3564869303676943e-08 to 2.3564869304653506e-08 seconds.
Warning: Simulation tolerance relaxed to achieve convergence from 2.3564869335903509e-08 to 2.3564869336880072e-08 seconds.
Warning: Simulation tolerance relaxed to achieve convergence from 2.3564869336880072e-08 to 2.3564869337856635e-08 seconds.
Warning: Simulation tolerance relaxed to achieve convergence from 2.3564869358364450e-08 to 2.3564869359341013e-08 seconds.
Warning: Simulation tolerance relaxed to achieve convergence from 2.3564869359341013e-08 to 2.3564869360317576e-08 seconds.
Warning: Simulation tolerance relaxed to achieve convergence from 2.3564869411098832e-08 to 2.3564869412075395e-08 seconds.
Warning: Simulation tolerance relaxed to achieve convergence from 2.3564869412075395e-08 to 2.3564869413051958e-08 seconds.
Warning: Simulation tolerance relaxed to achieve convergence from 2.3564869426723834e-08 to 2.3564869427700397e-08 seconds.
Warning: Simulation tolerance relaxed to achieve convergence from 2.3564869427700397e-08 to 2.3564869428676960e-08 seconds.
Warning: Simulation tolerance relaxed to achieve convergence from 2.3564869442348836e-08 to 2.3564869443325399e-08 seconds.
Warning: Simulation tolerance relaxed to achieve convergence from 2.3564869460903526e-08 to 2.3564869461880089e-08 seconds.
Warning: Simulation tolerance relaxed to achieve convergence from 2.3564869463833215e-08 to 2.3564869464809777e-08 seconds.
Warning: Simulation tolerance relaxed to achieve convergence from 2.3564869469692591e-08 to 2.3564869470669154e-08 seconds.
Warning: Simulation tolerance relaxed to achieve convergence from 2.3564869546841040e-08 to 2.3564869547817603e-08 seconds.
Warning: Simulation tolerance relaxed to achieve convergence from 2.3564869564419168e-08 to 2.3564869565395731e-08 seconds.
Warning: Simulation tolerance relaxed to achieve convergence from 2.3564869565395731e-08 to 2.3564869566372293e-08 seconds.
Warning: Simulation tolerance relaxed to achieve convergence from 2.3564869582973858e-08 to 2.3564869583950421e-08 seconds.
Warning: Simulation tolerance relaxed to achieve convergence from 2.3564869612270736e-08 to 2.3564869613247299e-08 seconds.
Warning: Simulation tolerance relaxed to achieve convergence from 2.3564869613247299e-08 to 2.3564869614223861e-08 seconds.
Warning: Simulation tolerance relaxed to achieve convergence from 2.3564869627895737e-08 to 2.3564869628872300e-08 seconds.
Warning: Simulation tolerance relaxed to achieve convergence from 2.3564869647426990e-08 to 2.3564869648403553e-08 seconds.
Warning: Simulation tolerance relaxed to achieve convergence from 2.3564869648403553e-08 to 2.3564869649380116e-08 seconds.
Warning: Simulation tolerance relaxed to achieve convergence from 2.3564869671841057e-08 to 2.3564869672817620e-08 seconds.
Warning: Simulation tolerance relaxed to achieve convergence from 2.3564869711880126e-08 to 2.3564869712856689e-08 seconds.
Warning: Simulation tolerance relaxed to achieve convergence from 2.3564869712856689e-08 to 2.3564869713833252e-08 seconds.
Warning: Simulation tolerance relaxed to achieve convergence from 2.3564869743130130e-08 to 2.3564869744106692e-08 seconds.
Warning: Simulation tolerance relaxed to achieve convergence from 2.3564869777309821e-08 to 2.3564869778286384e-08 seconds.
Warning: Simulation tolerance relaxed to achieve convergence from 2.3564869778286384e-08 to 2.3564869779262947e-08 seconds.
Warning: Simulation tolerance relaxed to achieve convergence from 2.3564869796841074e-08 to 2.3564869797817637e-08 seconds.
Warning: Simulation tolerance relaxed to achieve convergence from 2.3564869797817637e-08 to 2.3564869798794200e-08 seconds.
Warning: Simulation tolerance relaxed to achieve convergence from 2.3564869836880143e-08 to 2.3564869837856706e-08 seconds.
Warning: Simulation tolerance relaxed to achieve convergence from 2.3564869874966086e-08 to 2.3564869875942649e-08 seconds.
Warning: Simulation tolerance relaxed to achieve convergence from 2.3564869898403591e-08 to 2.3564869899380153e-08 seconds.
Warning: Simulation tolerance relaxed to achieve convergence from 2.3564869899380153e-08 to 2.3564869900356716e-08 seconds.
Warning: Simulation tolerance relaxed to achieve convergence from 2.3564869916958281e-08 to 2.3564869917934843e-08 seconds.
Warning: Simulation tolerance relaxed to achieve convergence from 2.3564869917934843e-08 to 2.3564869918911406e-08 seconds.
Warning: Simulation tolerance relaxed to achieve convergence from 2.3564869934536408e-08 to 2.3564869935512971e-08 seconds.
Warning: Simulation tolerance relaxed to achieve convergence from 2.3564869938442659e-08 to 2.3564869939419222e-08 seconds.
Warning: Simulation tolerance relaxed to achieve convergence from 2.3564869970669226e-08 to 2.3564869971645788e-08 seconds.
Warning: Simulation tolerance relaxed to achieve convergence from 2.3564869986294227e-08 to 2.3564869987270790e-08 seconds.
Warning: Simulation tolerance relaxed to achieve convergence from 2.3564869987270790e-08 to 2.3564869988247353e-08 seconds.
Warning: Simulation tolerance relaxed to achieve convergence from 2.3564870009731731e-08 to 2.3564870010708294e-08 seconds.
Warning: Simulation tolerance relaxed to achieve convergence from 2.3564870025356733e-08 to 2.3564870026333296e-08 seconds.
Warning: Simulation tolerance relaxed to achieve convergence from 2.3564870061489551e-08 to 2.3564870062466113e-08 seconds.
Warning: Simulation tolerance relaxed to achieve convergence from 2.3564870094692683e-08 to 2.3564870095669246e-08 seconds.
Warning: Simulation tolerance relaxed to achieve convergence from 2.3564870110317685e-08 to 2.3564870111294248e-08 seconds.
Warning: Simulation tolerance relaxed to achieve convergence from 2.3564870133755189e-08 to 2.3564870134731752e-08 seconds.
Warning: Simulation tolerance relaxed to achieve convergence from 2.3564870155239568e-08 to 2.3564870156216130e-08 seconds.
Warning: Simulation tolerance relaxed to achieve convergence from 2.3564870158169256e-08 to 2.3564870159145819e-08 seconds.
Warning: Simulation tolerance relaxed to achieve convergence from 2.3564870174770820e-08 to 2.3564870175747383e-08 seconds.
Warning: Simulation tolerance relaxed to achieve convergence from 2.3564870209927075e-08 to 2.3564870210903638e-08 seconds.
Warning: Simulation tolerance relaxed to achieve convergence from 2.3564870210903638e-08 to 2.3564870211880201e-08 seconds.
Warning: Simulation tolerance relaxed to achieve convergence from 2.3564870265591146e-08 to 2.3564870266567708e-08 seconds.
Warning: Simulation tolerance relaxed to achieve convergence from 2.3564870323208345e-08 to 2.3564870324184908e-08 seconds.
Warning: Simulation tolerance relaxed to achieve convergence from 2.3564870324184908e-08 to 2.3564870325161471e-08 seconds.
Warning: Simulation tolerance relaxed to achieve convergence from 2.3564870339809910e-08 to 2.3564870340786472e-08 seconds.
Warning: Simulation tolerance relaxed to achieve convergence from 2.3564870340786472e-08 to 2.3564870341763035e-08 seconds.
Warning: Simulation tolerance relaxed to achieve convergence from 2.3564870420864607e-08 to 2.3564870421841169e-08 seconds.
Warning: Simulation tolerance relaxed to achieve convergence from 2.3564870517544305e-08 to 2.3564870518520868e-08 seconds.
Warning: Simulation tolerance relaxed to achieve convergence from 2.3564870518520868e-08 to 2.3564870519497431e-08 seconds.
Warning: Simulation tolerance relaxed to achieve convergence from 2.3564870557583374e-08 to 2.3564870558559937e-08 seconds.
Warning: Simulation tolerance relaxed to achieve convergence from 2.3564870577114627e-08 to 2.3564870578091190e-08 seconds.
Warning: Simulation tolerance relaxed to achieve convergence from 2.3564870596645880e-08 to 2.3564870597622443e-08 seconds.
Warning: Simulation tolerance relaxed to achieve convergence from 2.3564870611294319e-08 to 2.3564870612270882e-08 seconds.
Warning: Simulation tolerance relaxed to achieve convergence from 2.3564870664028701e-08 to 2.3564870665005264e-08 seconds.
Warning: Simulation tolerance relaxed to achieve convergence from 2.3564870737270899e-08 to 2.3564870738247461e-08 seconds.
Warning: Simulation tolerance relaxed to achieve convergence from 2.3564870738247461e-08 to 2.3564870739224024e-08 seconds.
Warning: Simulation tolerance relaxed to achieve convergence from 2.3564870739224024e-08 to 2.3564870740200587e-08 seconds.
Warning: Simulation tolerance relaxed to achieve convergence from 2.3564870740200587e-08 to 2.3564870741177150e-08 seconds.
Warning: Simulation tolerance relaxed to achieve convergence from 2.3564870782192781e-08 to 2.3564870783169344e-08 seconds.
Warning: Simulation tolerance relaxed to achieve convergence from 2.3564870804653723e-08 to 2.3564870805630286e-08 seconds.
Warning: Simulation tolerance relaxed to achieve convergence from 2.3564870939419358e-08 to 2.3564870940395921e-08 seconds.
Warning: Simulation tolerance relaxed to achieve convergence from 2.3564870955044360e-08 to 2.3564870956020923e-08 seconds.
Warning: Simulation tolerance relaxed to achieve convergence from 2.3564870969692799e-08 to 2.3564870970669361e-08 seconds.
Warning: Simulation tolerance relaxed to achieve convergence from 2.3564871020474055e-08 to 2.3564871021450618e-08 seconds.
Warning: Simulation tolerance relaxed to achieve convergence from 2.3564871021450618e-08 to 2.3564871022427181e-08 seconds.
Warning: Simulation tolerance relaxed to achieve convergence from 2.3564871038052182e-08 to 2.3564871039028745e-08 seconds.
Warning: Simulation tolerance relaxed to achieve convergence from 2.3564871039028745e-08 to 2.3564871040005308e-08 seconds.
Warning: Simulation tolerance relaxed to achieve convergence from 2.3564871122036568e-08 to 2.3564871123013131e-08 seconds.
Warning: Simulation tolerance relaxed to achieve convergence from 2.3564871205044390e-08 to 2.3564871206020953e-08 seconds.
Warning: Simulation tolerance relaxed to achieve convergence from 2.3564871305630340e-08 to 2.3564871306606903e-08 seconds.
Warning: Simulation tolerance relaxed to achieve convergence from 2.3564871474575661e-08 to 2.3564871475552224e-08 seconds.
Warning: Simulation tolerance relaxed to achieve convergence from 2.3564871524380354e-08 to 2.3564871525356917e-08 seconds.
Warning: Simulation tolerance relaxed to achieve convergence from 2.3564871758755383e-08 to 2.3564871759731946e-08 seconds.
Warning: Simulation tolerance relaxed to achieve convergence from 2.3564872168911666e-08 to 2.3564872169888229e-08 seconds.
Warning: Simulation tolerance relaxed to achieve convergence from 2.3564872373013244e-08 to 2.3564872373989807e-08 seconds.
Warning: Simulation tolerance relaxed to achieve convergence from 2.3564875313442920e-08 to 2.3564875314419483e-08 seconds.
Warning: Simulation tolerance relaxed to achieve convergence from 2.3564875721646084e-08 to 2.3564875722622647e-08 seconds.
Warning: Simulation tolerance relaxed to achieve convergence from 2.3564875722622647e-08 to 2.3564875723599209e-08 seconds.
Warning: Simulation tolerance relaxed to achieve convergence from 2.3564875825161719e-08 to 2.3564875826138282e-08 seconds.
Warning: Simulation tolerance relaxed to achieve convergence from 2.3564875855435160e-08 to 2.3564875856411722e-08 seconds.
Warning: Simulation tolerance relaxed to achieve convergence from 2.3564876040005492e-08 to 2.3564876040982054e-08 seconds.
Warning: Simulation tolerance relaxed to achieve convergence from 2.3564876156216440e-08 to 2.3564876157193003e-08 seconds.
Warning: Simulation tolerance relaxed to achieve convergence from 2.3564876187466443e-08 to 2.3564876188443006e-08 seconds.
Warning: Simulation tolerance relaxed to achieve convergence from 2.3564876188443006e-08 to 2.3564876189419569e-08 seconds.
Warning: Simulation tolerance relaxed to achieve convergence from 2.3564876264614889e-08 to 2.3564876265591452e-08 seconds.
Warning: Simulation tolerance relaxed to achieve convergence from 2.3564876633755557e-08 to 2.3564876634732119e-08 seconds.
Warning: Simulation tolerance relaxed to achieve convergence from 2.3564876788052448e-08 to 2.3564876789029011e-08 seconds.
Warning: Simulation tolerance relaxed to achieve convergence from 2.3564876804654013e-08 to 2.3564876805630575e-08 seconds.
Warning: Simulation tolerance relaxed to achieve convergence from 2.3564876882779021e-08 to 2.3564876883755584e-08 seconds.
Warning: Simulation tolerance relaxed to achieve convergence from 2.3564876915005587e-08 to 2.3564876915982150e-08 seconds.
Warning: Simulation tolerance relaxed to achieve convergence from 2.3564876961880593e-08 to 2.3564876962857155e-08 seconds.
Warning: Simulation tolerance relaxed to achieve convergence from 2.3564877068325913e-08 to 2.3564877069302476e-08 seconds.
Warning: Simulation tolerance relaxed to achieve convergence from 2.3564877199185300e-08 to 2.3564877200161863e-08 seconds.
Warning: Simulation tolerance relaxed to achieve convergence from 2.3564877918911882e-08 to 2.3564877919888445e-08 seconds.
Warning: Simulation tolerance relaxed to achieve convergence from 2.3564877921841570e-08 to 2.3564877922818133e-08 seconds.
Warning: Simulation tolerance relaxed to achieve convergence from 2.3592563533170396e-08 to 2.3592563534146958e-08 seconds.
Warning: Simulation tolerance relaxed to achieve convergence from 2.3661788629850443e-08 to 2.3661788630827006e-08 seconds.
Warning: Simulation tolerance relaxed to achieve convergence from 2.3675622965788976e-08 to 2.3675622966765539e-08 seconds.
Warning: Simulation tolerance relaxed to achieve convergence from 2.3675625147430299e-08 to 2.3675625148406862e-08 seconds.
Warning: Simulation tolerance relaxed to achieve convergence from 2.3675625226531887e-08 to 2.3675625227508450e-08 seconds.
Warning: Simulation tolerance relaxed to achieve convergence from 2.3675629619111410e-08 to 2.3675629620087973e-08 seconds.
Warning: Simulation tolerance relaxed to achieve convergence from 2.3675630024384978e-08 to 2.3675630025361540e-08 seconds.
Warning: Simulation tolerance relaxed to achieve convergence from 2.3675634523409804e-08 to 2.3675634524386367e-08 seconds.
Warning: Simulation tolerance relaxed to achieve convergence from 2.3675637008762142e-08 to 2.3675637009738705e-08 seconds.
Warning: Simulation tolerance relaxed to achieve convergence from 2.3731023596655262e-08 to 2.3731023597631825e-08 seconds.
Warning: Simulation tolerance relaxed to achieve convergence from 2.3731026010718488e-08 to 2.3731026011695051e-08 seconds.
Warning: Simulation tolerance relaxed to achieve convergence from 2.3841955826149494e-08 to 2.3841955827126057e-08 seconds.
Warning: Simulation tolerance relaxed to achieve convergence from 2.3841957582985956e-08 to 2.3841957583962519e-08 seconds.
Warning: Simulation tolerance relaxed to achieve convergence from 2.3841959709939691e-08 to 2.3841959710916254e-08 seconds.
Warning: Simulation tolerance relaxed to achieve convergence from 2.3841961351541722e-08 to 2.3841961352518285e-08 seconds.
Warning: Simulation tolerance relaxed to achieve convergence from 2.3841962031229420e-08 to 2.3841962032205983e-08 seconds.
Warning: Simulation tolerance relaxed to achieve convergence from 2.3841962497049863e-08 to 2.3841962498026425e-08 seconds.
Warning: Simulation tolerance relaxed to achieve convergence from 2.3841964107401913e-08 to 2.3841964108378476e-08 seconds.
Warning: Simulation tolerance relaxed to achieve convergence from 2.3841965867168014e-08 to 2.3841965868144577e-08 seconds.
Warning: Simulation tolerance relaxed to achieve convergence from 2.3841967038066817e-08 to 2.3841967039043380e-08 seconds.
Warning: Simulation tolerance relaxed to achieve convergence from 2.3841967591777913e-08 to 2.3841967592754476e-08 seconds.
Warning: Simulation tolerance relaxed to achieve convergence from 2.3841967847637370e-08 to 2.3841967848613933e-08 seconds.
Warning: Simulation tolerance relaxed to achieve convergence from 2.3841968580059461e-08 to 2.3841968581036023e-08 seconds.
Warning: Simulation tolerance relaxed to achieve convergence from 2.3897536055644970e-08 to 2.3897536056621533e-08 seconds.
Warning: Simulation tolerance relaxed to achieve convergence from 2.3897550341778749e-08 to 2.3897550342755312e-08 seconds.
Warning: Simulation tolerance relaxed to achieve convergence from 2.3897554790998929e-08 to 2.3897554791975491e-08 seconds.
Warning: Simulation tolerance relaxed to achieve convergence from 2.3897555064436516e-08 to 2.3897555065413079e-08 seconds.
Warning: Simulation tolerance relaxed to achieve convergence from 2.3897555114241220e-08 to 2.3897555115217783e-08 seconds.
Warning: Simulation tolerance relaxed to achieve convergence from 2.3897555294905341e-08 to 2.3897555295881903e-08 seconds.
Warning: Simulation tolerance relaxed to achieve convergence from 2.3897562161118484e-08 to 2.3897562162095047e-08 seconds.
Warning: Simulation tolerance relaxed to achieve convergence from 2.4009112087876898e-08 to 2.4009112088853461e-08 seconds.
Warning: Simulation tolerance relaxed to achieve convergence from 2.4009112115220657e-08 to 2.4009112116197220e-08 seconds.
Warning: Simulation tolerance relaxed to achieve convergence from 2.4009112124009722e-08 to 2.4009112124986285e-08 seconds.
Warning: Simulation tolerance relaxed to achieve convergence from 2.4009113573228938e-08 to 2.4009113574205501e-08 seconds.
Warning: Simulation tolerance relaxed to achieve convergence from 2.4009113588853943e-08 to 2.4009113589830506e-08 seconds.
Warning: Simulation tolerance relaxed to achieve convergence from 2.4009113711900858e-08 to 2.4009113712877420e-08 seconds.
Warning: Simulation tolerance relaxed to achieve convergence from 2.4009113730455551e-08 to 2.4009113731432114e-08 seconds.
Warning: Simulation tolerance relaxed to achieve convergence from 2.4009113832018064e-08 to 2.4009113832994627e-08 seconds.
Warning: Simulation tolerance relaxed to achieve convergence from 2.4009113857408697e-08 to 2.4009113858385260e-08 seconds.
Warning: Simulation tolerance relaxed to achieve convergence from 2.4009116567370091e-08 to 2.4009116568346654e-08 seconds.
Warning: Simulation tolerance relaxed to achieve convergence from 2.4009118474596896e-08 to 2.4009118475573459e-08 seconds.
Warning: Simulation tolerance relaxed to achieve convergence from 2.4009118664050082e-08 to 2.4009118665026645e-08 seconds.
Warning: Simulation tolerance relaxed to achieve convergence from 2.4009120820300715e-08 to 2.4009120821277278e-08 seconds.
Warning: Simulation tolerance relaxed to achieve convergence from 2.4009120833972595e-08 to 2.4009120834949157e-08 seconds.
Warning: Simulation tolerance relaxed to achieve convergence from 2.4009120902331992e-08 to 2.4009120903308554e-08 seconds.
Warning: Simulation tolerance relaxed to achieve convergence from 2.4009120909167931e-08 to 2.4009120910144494e-08 seconds.
Warning: Simulation tolerance relaxed to achieve convergence from 2.4009123029285760e-08 to 2.4009123030262323e-08 seconds.
Warning: Simulation tolerance relaxed to achieve convergence from 2.4009123066395147e-08 to 2.4009123067371710e-08 seconds.
Warning: Simulation tolerance relaxed to achieve convergence from 2.4009123087879529e-08 to 2.4009123088856092e-08 seconds.
Warning: Simulation tolerance relaxed to achieve convergence from 2.4009123109363911e-08 to 2.4009123110340474e-08 seconds.
Warning: Simulation tolerance relaxed to achieve convergence from 2.4009123160145177e-08 to 2.4009123161121740e-08 seconds.
Warning: Simulation tolerance relaxed to achieve convergence from 2.4009123171863931e-08 to 2.4009123172840494e-08 seconds.
Warning: Simulation tolerance relaxed to achieve convergence from 2.4121331470694013e-08 to 2.4121331471670576e-08 seconds.
Warning: Simulation tolerance relaxed to achieve convergence from 2.4121335899406340e-08 to 2.4121335900382903e-08 seconds.
Warning: Simulation tolerance relaxed to achieve convergence from 2.4121345246087912e-08 to 2.4121345247064475e-08 seconds.
Warning: Simulation tolerance relaxed to achieve convergence from 2.4177748813472680e-08 to 2.4177748814449243e-08 seconds.
Warning: Simulation tolerance relaxed to achieve convergence from 2.4177748827144560e-08 to 2.4177748828121122e-08 seconds.
Warning: Simulation tolerance relaxed to achieve convergence from 2.4177749698238573e-08 to 2.4177749699215136e-08 seconds.
Warning: Simulation tolerance relaxed to achieve convergence from 2.4177749848629246e-08 to 2.4177749849605809e-08 seconds.
Warning: Simulation tolerance relaxed to achieve convergence from 2.4177749964840214e-08 to 2.4177749965816777e-08 seconds.
Warning: Simulation tolerance relaxed to achieve convergence from 2.4177749978512094e-08 to 2.4177749979488657e-08 seconds.
Warning: Simulation tolerance relaxed to achieve convergence from 2.4177750650387306e-08 to 2.4177750651363869e-08 seconds.
Warning: Simulation tolerance relaxed to achieve convergence from 2.4177752254879980e-08 to 2.4177752255856542e-08 seconds.
Warning: Simulation tolerance relaxed to achieve convergence from 2.4177752268551859e-08 to 2.4177752269528422e-08 seconds.
Warning: Simulation tolerance relaxed to achieve convergence from 2.4177753787107014e-08 to 2.4177753788083577e-08 seconds.
Warning: Simulation tolerance relaxed to achieve convergence from 2.4177753834958592e-08 to 2.4177753835935155e-08 seconds.
Warning: Simulation tolerance relaxed to achieve convergence from 2.4177754232419658e-08 to 2.4177754233396220e-08 seconds.
Warning: Simulation tolerance relaxed to achieve convergence from 2.4177754647458850e-08 to 2.4177754648435413e-08 seconds.
Warning: Simulation tolerance relaxed to achieve convergence from 2.4177755154294950e-08 to 2.4177755155271513e-08 seconds.
Warning: Simulation tolerance relaxed to achieve convergence from 2.4177755318357503e-08 to 2.4177755319334066e-08 seconds.
Warning: Simulation tolerance relaxed to achieve convergence from 2.4177755677732605e-08 to 2.4177755678709168e-08 seconds.
Warning: Simulation tolerance relaxed to achieve convergence from 2.4177758408202180e-08 to 2.4177758409178742e-08 seconds.
Warning: Simulation tolerance relaxed to achieve convergence from 2.4177758867186692e-08 to 2.4177758868163255e-08 seconds.
Warning: Simulation tolerance relaxed to achieve convergence from 2.4177760043944879e-08 to 2.4177760044921442e-08 seconds.
Warning: Simulation tolerance relaxed to achieve convergence from 2.4177761008788933e-08 to 2.4177761009765496e-08 seconds.
Warning: Simulation tolerance relaxed to achieve convergence from 2.4177761015624872e-08 to 2.4177761016601435e-08 seconds.
Warning: Simulation tolerance relaxed to achieve convergence from 2.4177761373046859e-08 to 2.4177761374023422e-08 seconds.
Warning: Simulation tolerance relaxed to achieve convergence from 2.4435826855472696e-08 to 2.4435826856449259e-08 seconds.
Warning: Simulation tolerance relaxed to achieve convergence from 2.4522090199220844e-08 to 2.4522090200197407e-08 seconds.
Warning: Simulation tolerance relaxed to achieve convergence from 2.4522097382815095e-08 to 2.4522097383791658e-08 seconds.
Warning: Simulation tolerance relaxed to achieve convergence from 2.4522098329104422e-08 to 2.4522098330080985e-08 seconds.
Warning: Simulation tolerance relaxed to achieve convergence from 2.4522099296878170e-08 to 2.4522099297854733e-08 seconds.
Warning: Simulation tolerance relaxed to achieve convergence from 2.4522101065433383e-08 to 2.4522101066409946e-08 seconds.
Warning: Simulation tolerance relaxed to achieve convergence from 2.4522101648441373e-08 to 2.4522101649417936e-08 seconds.
Warning: Simulation tolerance relaxed to achieve convergence from 2.4522102616215102e-08 to 2.4522102617191664e-08 seconds.
Warning: Simulation tolerance relaxed to achieve convergence from 2.4522108293950986e-08 to 2.4522108294927549e-08 seconds.
Warning: Simulation tolerance relaxed to achieve convergence from 2.4699132258797759e-08 to 2.4699132259774322e-08 seconds.
Warning: Simulation tolerance relaxed to achieve convergence from 2.4699132259774322e-08 to 2.4699132260750885e-08 seconds.
Warning: Simulation tolerance relaxed to achieve convergence from 2.4699132260750885e-08 to 2.4699132261727447e-08 seconds.
Warning: Simulation tolerance relaxed to achieve convergence from 2.4699132261727447e-08 to 2.4699132262704010e-08 seconds.
Warning: Simulation tolerance relaxed to achieve convergence from 2.4699132262704010e-08 to 2.4699132263680573e-08 seconds.
Warning: Simulation tolerance relaxed to achieve convergence from 2.4699132263680573e-08 to 2.4699132264657136e-08 seconds.
Warning: Simulation tolerance relaxed to achieve convergence from 2.4699132264657136e-08 to 2.4699132265633699e-08 seconds.
Warning: Simulation tolerance relaxed to achieve convergence from 2.4699132265633699e-08 to 2.4699132266610261e-08 seconds.
Warning: Simulation tolerance relaxed to achieve convergence from 2.4699132266610261e-08 to 2.4699132267586824e-08 seconds.
Warning: Simulation tolerance relaxed to achieve convergence from 2.4699132517586825e-08 to 2.4699132518563388e-08 seconds.
Warning: Simulation tolerance relaxed to achieve convergence from 2.4699132821297754e-08 to 2.4699132822274317e-08 seconds.
Warning: Simulation tolerance relaxed to achieve convergence from 2.4699132822274317e-08 to 2.4699132823250880e-08 seconds.
Warning: Simulation tolerance relaxed to achieve convergence from 2.4699132823250880e-08 to 2.4699132824227443e-08 seconds.
Warning: Simulation tolerance relaxed to achieve convergence from 2.4699132824227443e-08 to 2.4699132825204006e-08 seconds.
Warning: Simulation tolerance relaxed to achieve convergence from 2.4699132825204006e-08 to 2.4699132826180568e-08 seconds.
Warning: Simulation tolerance relaxed to achieve convergence from 2.4699132826180568e-08 to 2.4699132827157131e-08 seconds.
Warning: Simulation tolerance relaxed to achieve convergence from 2.4699132827157131e-08 to 2.4699132828133694e-08 seconds.
Warning: Simulation tolerance relaxed to achieve convergence from 2.4699132828133694e-08 to 2.4699132829110257e-08 seconds.
Warning: Simulation tolerance relaxed to achieve convergence from 2.4699132829110257e-08 to 2.4699132830086820e-08 seconds.
Warning: Simulation tolerance relaxed to achieve convergence from 2.4699132830086820e-08 to 2.4699132831063383e-08 seconds.
Warning: Simulation tolerance relaxed to achieve convergence from 2.4699132831063383e-08 to 2.4699132832039945e-08 seconds.
Warning: Simulation tolerance relaxed to achieve convergence from 2.4699132832039945e-08 to 2.4699132833016508e-08 seconds.
Warning: Simulation tolerance relaxed to achieve convergence from 2.4699132833016508e-08 to 2.4699132833993071e-08 seconds.
Warning: Simulation tolerance relaxed to achieve convergence from 2.4699132833993071e-08 to 2.4699132834969634e-08 seconds.
Warning: Simulation tolerance relaxed to achieve convergence from 2.4699132834969634e-08 to 2.4699132835946197e-08 seconds.
Warning: Simulation tolerance relaxed to achieve convergence from 2.4699132835946197e-08 to 2.4699132836922759e-08 seconds.
Warning: Simulation tolerance relaxed to achieve convergence from 2.4699132843758699e-08 to 2.4699132844735262e-08 seconds.
Warning: Simulation tolerance relaxed to achieve convergence from 2.4699132844735262e-08 to 2.4699132845711825e-08 seconds.
Warning: Simulation tolerance relaxed to achieve convergence from 2.4699132845711825e-08 to 2.4699132846688388e-08 seconds.
Warning: Simulation tolerance relaxed to achieve convergence from 2.4699132846688388e-08 to 2.4699132847664950e-08 seconds.
Warning: Simulation tolerance relaxed to achieve convergence from 2.4699132847664950e-08 to 2.4699132848641513e-08 seconds.
Warning: Simulation tolerance relaxed to achieve convergence from 2.4699132848641513e-08 to 2.4699132849618076e-08 seconds.
Warning: Simulation tolerance relaxed to achieve convergence from 2.4699132849618076e-08 to 2.4699132850594639e-08 seconds.
Warning: Simulation tolerance relaxed to achieve convergence from 2.4699132850594639e-08 to 2.4699132851571202e-08 seconds.
Warning: Simulation tolerance relaxed to achieve convergence from 2.4699132851571202e-08 to 2.4699132852547764e-08 seconds.
Warning: Simulation tolerance relaxed to achieve convergence from 2.4699132852547764e-08 to 2.4699132853524327e-08 seconds.
Warning: Simulation tolerance relaxed to achieve convergence from 2.4699132853524327e-08 to 2.4699132854500890e-08 seconds.
Warning: Simulation tolerance relaxed to achieve convergence from 2.4699132854500890e-08 to 2.4699132855477453e-08 seconds.
[...]
Warning: Simulation tolerance relaxed to achieve convergence from 2.5734669857465030e-08 to 2.5734669858441593e-08 seconds.
Warning: Simulation tolerance relaxed to achieve convergence from 2.5734669858441593e-08 to 2.5734669859418156e-08 seconds.
Warning: Simulation tolerance relaxed to achieve convergence from 2.5734669859418156e-08 to 2.5734669860394719e-08 seconds.
Warning: Simulation tolerance relaxed to achieve convergence from 2.5734669861371282e-08 to 2.5734669862347844e-08 seconds.
Warning: Simulation tolerance relaxed to achieve convergence from 2.5734669862347844e-08 to 2.5734669863324407e-08 seconds.
Warning: Simulation tolerance relaxed to achieve convergence from 2.5734669863324407e-08 to 2.5734669864300970e-08 seconds.
Warning: Simulation tolerance relaxed to achieve convergence from 2.5734669866254096e-08 to 2.5734669867230659e-08 seconds.
Warning: Simulation tolerance relaxed to achieve convergence from 2.5734669867230659e-08 to 2.5734669868207221e-08 seconds.
Warning: Simulation tolerance relaxed to achieve convergence from 2.5734669868207221e-08 to 2.5734669869183784e-08 seconds.
Warning: Simulation tolerance relaxed to achieve convergence from 2.5734669881879101e-08 to 2.5734669882855664e-08 seconds.
Warning: Simulation tolerance relaxed to achieve convergence from 2.5734669882855664e-08 to 2.5734669883832226e-08 seconds.
Warning: Simulation tolerance relaxed to achieve convergence from 2.5734669885785352e-08 to 2.5734669886761915e-08 seconds.
Warning: Simulation tolerance relaxed to achieve convergence from 2.5734669888715040e-08 to 2.5734669889691603e-08 seconds.
Warning: Simulation tolerance relaxed to achieve convergence from 2.5734669889691603e-08 to 2.5734669890668166e-08 seconds.
Warning: Simulation tolerance relaxed to achieve convergence from 2.5734669890668166e-08 to 2.5734669891644729e-08 seconds.
Warning: Simulation tolerance relaxed to achieve convergence from 2.5734669891644729e-08 to 2.5734669892621292e-08 seconds.
Warning: Simulation tolerance relaxed to achieve convergence from 2.5734669892621292e-08 to 2.5734669893597854e-08 seconds.
Warning: Simulation tolerance relaxed to achieve convergence from 2.5734669893597854e-08 to 2.5734669894574417e-08 seconds.
Warning: Simulation tolerance relaxed to achieve convergence from 2.5734669894574417e-08 to 2.5734669895550980e-08 seconds.
Warning: Simulation tolerance relaxed to achieve convergence from 2.5734669895550980e-08 to 2.5734669896527543e-08 seconds.
Warning: Simulation tolerance relaxed to achieve convergence from 2.5734669896527543e-08 to 2.5734669897504106e-08 seconds.
Warning: Simulation tolerance relaxed to achieve convergence from 2.5734669897504106e-08 to 2.5734669898480669e-08 seconds.
Warning: Simulation tolerance relaxed to achieve convergence from 2.5734669898480669e-08 to 2.5734669899457231e-08 seconds.
Warning: Simulation tolerance relaxed to achieve convergence from 2.5734669899457231e-08 to 2.5734669900433794e-08 seconds.
Warning: Simulation tolerance relaxed to achieve convergence from 2.5734669900433794e-08 to 2.5734669901410357e-08 seconds.
Warning: Simulation tolerance relaxed to achieve convergence from 2.5734669901410357e-08 to 2.5734669902386920e-08 seconds.
Warning: Simulation tolerance relaxed to achieve convergence from 2.5734669903363483e-08 to 2.5734669904340045e-08 seconds.
Warning: Simulation tolerance relaxed to achieve convergence from 2.5734669904340045e-08 to 2.5734669905316608e-08 seconds.
Warning: Simulation tolerance relaxed to achieve convergence from 2.5734669907269734e-08 to 2.5734669908246297e-08 seconds.
Warning: Simulation tolerance relaxed to achieve convergence from 2.5734669908246297e-08 to 2.5734669909222859e-08 seconds.
Warning: Simulation tolerance relaxed to achieve convergence from 2.5734669909222859e-08 to 2.5734669910199422e-08 seconds.
Warning: Simulation tolerance relaxed to achieve convergence from 2.5734669910199422e-08 to 2.5734669911175985e-08 seconds.
Warning: Simulation tolerance relaxed to achieve convergence from 2.5734669911175985e-08 to 2.5734669912152548e-08 seconds.
Warning: Simulation tolerance relaxed to achieve convergence from 2.5734669912152548e-08 to 2.5734669913129111e-08 seconds.
Warning: Simulation tolerance relaxed to achieve convergence from 2.5734669913129111e-08 to 2.5734669914105674e-08 seconds.
Warning: Simulation tolerance relaxed to achieve convergence from 2.5734669914105674e-08 to 2.5734669915082236e-08 seconds.
Warning: Simulation tolerance relaxed to achieve convergence from 2.5734669915082236e-08 to 2.5734669916058799e-08 seconds.
Warning: Simulation tolerance relaxed to achieve convergence from 2.5734669916058799e-08 to 2.5734669917035362e-08 seconds.
Warning: Simulation tolerance relaxed to achieve convergence from 2.5734669917035362e-08 to 2.5734669918011925e-08 seconds.
Warning: Simulation tolerance relaxed to achieve convergence from 2.5734669918011925e-08 to 2.5734669918988488e-08 seconds.
Warning: Simulation tolerance relaxed to achieve convergence from 2.5734669918988488e-08 to 2.5734669919965050e-08 seconds.
Warning: Simulation tolerance relaxed to achieve convergence from 2.5734669919965050e-08 to 2.5734669920941613e-08 seconds.
Warning: Simulation tolerance relaxed to achieve convergence from 2.5734669920941613e-08 to 2.5734669921918176e-08 seconds.
Warning: Simulation tolerance relaxed to achieve convergence from 2.5734669921918176e-08 to 2.5734669922894739e-08 seconds.
Warning: Simulation tolerance relaxed to achieve convergence from 2.5734669922894739e-08 to 2.5734669923871302e-08 seconds.
Warning: Simulation tolerance relaxed to achieve convergence from 2.5734669923871302e-08 to 2.5734669924847865e-08 seconds.
Warning: Simulation tolerance relaxed to achieve convergence from 2.5734669925824427e-08 to 2.5734669926800990e-08 seconds.
Warning: Simulation tolerance relaxed to achieve convergence from 2.5734669926800990e-08 to 2.5734669927777553e-08 seconds.
Warning: Simulation tolerance relaxed to achieve convergence from 2.5734669927777553e-08 to 2.5734669928754116e-08 seconds.
Warning: Simulation tolerance relaxed to achieve convergence from 2.5734669928754116e-08 to 2.5734669929730679e-08 seconds.
Warning: Simulation tolerance relaxed to achieve convergence from 2.5734669929730679e-08 to 2.5734669930707241e-08 seconds.
Warning: Simulation tolerance relaxed to achieve convergence from 2.5734669930707241e-08 to 2.5734669931683804e-08 seconds.
Warning: Simulation tolerance relaxed to achieve convergence from 2.5734669931683804e-08 to 2.5734669932660367e-08 seconds.
Warning: Simulation tolerance relaxed to achieve convergence from 2.5734669932660367e-08 to 2.5734669933636930e-08 seconds.
Warning: Simulation tolerance relaxed to achieve convergence from 2.5734669933636930e-08 to 2.5734669934613493e-08 seconds.
Warning: Simulation tolerance relaxed to achieve convergence from 2.5734669934613493e-08 to 2.5734669935590055e-08 seconds.
Warning: Simulation tolerance relaxed to achieve convergence from 2.5734669935590055e-08 to 2.5734669936566618e-08 seconds.
Warning: Simulation tolerance relaxed to achieve convergence from 2.5734669936566618e-08 to 2.5734669937543181e-08 seconds.
Warning: Simulation tolerance relaxed to achieve convergence from 2.5734669937543181e-08 to 2.5734669938519744e-08 seconds.
Warning: Simulation tolerance relaxed to achieve convergence from 2.5734669938519744e-08 to 2.5734669939496307e-08 seconds.
Warning: Simulation tolerance relaxed to achieve convergence from 2.5734669939496307e-08 to 2.5734669940472870e-08 seconds.
Warning: Simulation tolerance relaxed to achieve convergence from 2.5734669940472870e-08 to 2.5734669941449432e-08 seconds.
Warning: Simulation tolerance relaxed to achieve convergence from 2.5734669941449432e-08 to 2.5734669942425995e-08 seconds.
Warning: Simulation tolerance relaxed to achieve convergence from 2.5734669942425995e-08 to 2.5734669943402558e-08 seconds.
Warning: Simulation tolerance relaxed to achieve convergence from 2.5734669943402558e-08 to 2.5734669944379121e-08 seconds.
Warning: Simulation tolerance relaxed to achieve convergence from 2.5734669944379121e-08 to 2.5734669945355684e-08 seconds.
Warning: Simulation tolerance relaxed to achieve convergence from 2.5734669945355684e-08 to 2.5734669946332246e-08 seconds.
Warning: Simulation tolerance relaxed to achieve convergence from 2.5734669946332246e-08 to 2.5734669947308809e-08 seconds.
Warning: Simulation tolerance relaxed to achieve convergence from 2.5734669948285372e-08 to 2.5734669949261935e-08 seconds.
Warning: Simulation tolerance relaxed to achieve convergence from 2.5734669949261935e-08 to 2.5734669950238498e-08 seconds.
Warning: Simulation tolerance relaxed to achieve convergence from 2.5734669950238498e-08 to 2.5734669951215060e-08 seconds.
Warning: Simulation tolerance relaxed to achieve convergence from 2.5734669951215060e-08 to 2.5734669952191623e-08 seconds.
Warning: Simulation tolerance relaxed to achieve convergence from 2.5734669952191623e-08 to 2.5734669953168186e-08 seconds.
Warning: Simulation tolerance relaxed to achieve convergence from 2.5734669953168186e-08 to 2.5734669954144749e-08 seconds.
Warning: Simulation tolerance relaxed to achieve convergence from 2.5734669966840066e-08 to 2.5734669967816628e-08 seconds.
Warning: Simulation tolerance relaxed to achieve convergence from 2.5734669967816628e-08 to 2.5734669968793191e-08 seconds.
Warning: Simulation tolerance relaxed to achieve convergence from 2.5734669968793191e-08 to 2.5734669969769754e-08 seconds.
Warning: Simulation tolerance relaxed to achieve convergence from 2.5734669969769754e-08 to 2.5734669970746317e-08 seconds.
Warning: Simulation tolerance relaxed to achieve convergence from 2.5734669970746317e-08 to 2.5734669971722880e-08 seconds.
Warning: Simulation tolerance relaxed to achieve convergence from 2.5734669971722880e-08 to 2.5734669972699442e-08 seconds.
Warning: Simulation tolerance relaxed to achieve convergence from 2.5734669972699442e-08 to 2.5734669973676005e-08 seconds.
Warning: Simulation tolerance relaxed to achieve convergence from 2.5734669973676005e-08 to 2.5734669974652568e-08 seconds.
Warning: Simulation tolerance relaxed to achieve convergence from 2.5734669974652568e-08 to 2.5734669975629131e-08 seconds.
Warning: Simulation tolerance relaxed to achieve convergence from 2.5734669975629131e-08 to 2.5734669976605694e-08 seconds.
Warning: Simulation tolerance relaxed to achieve convergence from 2.5734669976605694e-08 to 2.5734669977582256e-08 seconds.
Warning: Simulation tolerance relaxed to achieve convergence from 2.5734669977582256e-08 to 2.5734669978558819e-08 seconds.
Warning: Simulation tolerance relaxed to achieve convergence from 2.5734669978558819e-08 to 2.5734669979535382e-08 seconds.
Warning: Simulation tolerance relaxed to achieve convergence from 2.5734669979535382e-08 to 2.5734669980511945e-08 seconds.
Warning: Simulation tolerance relaxed to achieve convergence from 2.5734669980511945e-08 to 2.5734669981488508e-08 seconds.
Warning: Simulation tolerance relaxed to achieve convergence from 2.5734669981488508e-08 to 2.5734669982465071e-08 seconds.
Warning: Simulation tolerance relaxed to achieve convergence from 2.5734669982465071e-08 to 2.5734669983441633e-08 seconds.
Warning: Simulation tolerance relaxed to achieve convergence from 2.5734669983441633e-08 to 2.5734669984418196e-08 seconds.
Warning: Simulation tolerance relaxed to achieve convergence from 2.5734669984418196e-08 to 2.5734669985394759e-08 seconds.
Warning: Simulation tolerance relaxed to achieve convergence from 2.5734669985394759e-08 to 2.5734669986371322e-08 seconds.
Warning: Simulation tolerance relaxed to achieve convergence from 2.5734669986371322e-08 to 2.5734669987347885e-08 seconds.
Warning: Simulation tolerance relaxed to achieve convergence from 2.5734669988324447e-08 to 2.5734669989301010e-08 seconds.
Warning: Simulation tolerance relaxed to achieve convergence from 2.5734669989301010e-08 to 2.5734669990277573e-08 seconds.
Warning: Simulation tolerance relaxed to achieve convergence from 2.5734669990277573e-08 to 2.5734669991254136e-08 seconds.
Warning: Simulation tolerance relaxed to achieve convergence from 2.5734669991254136e-08 to 2.5734669992230699e-08 seconds.
Warning: Simulation tolerance relaxed to achieve convergence from 2.5734669992230699e-08 to 2.5734669993207261e-08 seconds.
Warning: Simulation tolerance relaxed to achieve convergence from 2.5734669993207261e-08 to 2.5734669994183824e-08 seconds.
Warning: Simulation tolerance relaxed to achieve convergence from 2.5734669994183824e-08 to 2.5734669995160387e-08 seconds.
Warning: Simulation tolerance relaxed to achieve convergence from 2.5734669995160387e-08 to 2.5734669996136950e-08 seconds.
Warning: Simulation tolerance relaxed to achieve convergence from 2.5734669996136950e-08 to 2.5734669997113513e-08 seconds.
Warning: Simulation tolerance relaxed to achieve convergence from 2.5734669997113513e-08 to 2.5734669998090076e-08 seconds.
Warning: Simulation tolerance relaxed to achieve convergence from 2.5734669998090076e-08 to 2.5734669999066638e-08 seconds.
Warning: Simulation tolerance relaxed to achieve convergence from 2.5734669999066638e-08 to 2.5734670000043201e-08 seconds.
Warning: Simulation tolerance relaxed to achieve convergence from 2.5734670000043201e-08 to 2.5734670001019764e-08 seconds.
Warning: Simulation tolerance relaxed to achieve convergence from 2.5734670001996327e-08 to 2.5734670002972890e-08 seconds.
Warning: Simulation tolerance relaxed to achieve convergence from 2.5734670002972890e-08 to 2.5734670003949452e-08 seconds.
Warning: Simulation tolerance relaxed to achieve convergence from 2.5734670003949452e-08 to 2.5734670004926015e-08 seconds.
Warning: Simulation tolerance relaxed to achieve convergence from 2.5734670004926015e-08 to 2.5734670005902578e-08 seconds.
Warning: Simulation tolerance relaxed to achieve convergence from 2.5734670005902578e-08 to 2.5734670006879141e-08 seconds.
Warning: Simulation tolerance relaxed to achieve convergence from 2.5734670011761955e-08 to 2.5734670012738518e-08 seconds.
Warning: Simulation tolerance relaxed to achieve convergence from 2.5734670012738518e-08 to 2.5734670013715081e-08 seconds.
Warning: Simulation tolerance relaxed to achieve convergence from 2.5734670013715081e-08 to 2.5734670014691643e-08 seconds.
Warning: Simulation tolerance relaxed to achieve convergence from 2.5734670014691643e-08 to 2.5734670015668206e-08 seconds.
Warning: Simulation tolerance relaxed to achieve convergence from 2.5734670015668206e-08 to 2.5734670016644769e-08 seconds.
Warning: Simulation tolerance relaxed to achieve convergence from 2.5734670016644769e-08 to 2.5734670017621332e-08 seconds.
Warning: Simulation tolerance relaxed to achieve convergence from 2.5734670017621332e-08 to 2.5734670018597895e-08 seconds.
Warning: Simulation tolerance relaxed to achieve convergence from 2.5734670018597895e-08 to 2.5734670019574457e-08 seconds.
Warning: Simulation tolerance relaxed to achieve convergence from 2.5734670034222900e-08 to 2.5734670035199462e-08 seconds.
Warning: Simulation tolerance relaxed to achieve convergence from 2.5734670035199462e-08 to 2.5734670036176025e-08 seconds.
Warning: Simulation tolerance relaxed to achieve convergence from 2.5734670036176025e-08 to 2.5734670037152588e-08 seconds.
Warning: Simulation tolerance relaxed to achieve convergence from 2.5734670037152588e-08 to 2.5734670038129151e-08 seconds.
Warning: Simulation tolerance relaxed to achieve convergence from 2.5734670038129151e-08 to 2.5734670039105714e-08 seconds.
Warning: Simulation tolerance relaxed to achieve convergence from 2.5734670039105714e-08 to 2.5734670040082277e-08 seconds.
Warning: Simulation tolerance relaxed to achieve convergence from 2.5734670045941653e-08 to 2.5734670046918216e-08 seconds.
Warning: Simulation tolerance relaxed to achieve convergence from 2.5734670046918216e-08 to 2.5734670047894779e-08 seconds.
Warning: Simulation tolerance relaxed to achieve convergence from 2.5734670062543221e-08 to 2.5734670063519784e-08 seconds.
Warning: Simulation tolerance relaxed to achieve convergence from 2.5734670063519784e-08 to 2.5734670064496347e-08 seconds.
Warning: Simulation tolerance relaxed to achieve convergence from 2.5734670064496347e-08 to 2.5734670065472910e-08 seconds.
Warning: Simulation tolerance relaxed to achieve convergence from 2.5734670065472910e-08 to 2.5734670066449473e-08 seconds.
Warning: Simulation tolerance relaxed to achieve convergence from 2.5734670066449473e-08 to 2.5734670067426035e-08 seconds.
Warning: Simulation tolerance relaxed to achieve convergence from 2.5734670067426035e-08 to 2.5734670068402598e-08 seconds.
Warning: Simulation tolerance relaxed to achieve convergence from 2.5734670068402598e-08 to 2.5734670069379161e-08 seconds.
Warning: Simulation tolerance relaxed to achieve convergence from 2.5734670069379161e-08 to 2.5734670070355724e-08 seconds.
Warning: Simulation tolerance relaxed to achieve convergence from 2.5734670070355724e-08 to 2.5734670071332287e-08 seconds.
Warning: Simulation tolerance relaxed to achieve convergence from 2.5734670071332287e-08 to 2.5734670072308849e-08 seconds.
Warning: Simulation tolerance relaxed to achieve convergence from 2.5734670076215101e-08 to 2.5734670077191663e-08 seconds.
Warning: Simulation tolerance relaxed to achieve convergence from 2.5734670077191663e-08 to 2.5734670078168226e-08 seconds.
Warning: Simulation tolerance relaxed to achieve convergence from 2.5734670078168226e-08 to 2.5734670079144789e-08 seconds.
Warning: Simulation tolerance relaxed to achieve convergence from 2.5734670079144789e-08 to 2.5734670080121352e-08 seconds.
Warning: Simulation tolerance relaxed to achieve convergence from 2.5734670080121352e-08 to 2.5734670081097915e-08 seconds.
Warning: Simulation tolerance relaxed to achieve convergence from 2.5734670081097915e-08 to 2.5734670082074478e-08 seconds.
Warning: Simulation tolerance relaxed to achieve convergence from 2.5734670082074478e-08 to 2.5734670083051040e-08 seconds.
Warning: Simulation tolerance relaxed to achieve convergence from 2.5734670083051040e-08 to 2.5734670084027603e-08 seconds.
Warning: Simulation tolerance relaxed to achieve convergence from 2.5734670084027603e-08 to 2.5734670085004166e-08 seconds.
Warning: Simulation tolerance relaxed to achieve convergence from 2.5734670085004166e-08 to 2.5734670085980729e-08 seconds.
Warning: Simulation tolerance relaxed to achieve convergence from 2.5734670095746357e-08 to 2.5734670096722920e-08 seconds.
Warning: Simulation tolerance relaxed to achieve convergence from 2.5734670096722920e-08 to 2.5734670097699483e-08 seconds.
Warning: Simulation tolerance relaxed to achieve convergence from 2.5734670097699483e-08 to 2.5734670098676045e-08 seconds.
Warning: Simulation tolerance relaxed to achieve convergence from 2.5734670098676045e-08 to 2.5734670099652608e-08 seconds.
Warning: Simulation tolerance relaxed to achieve convergence from 2.5734670099652608e-08 to 2.5734670100629171e-08 seconds.
Warning: Simulation tolerance relaxed to achieve convergence from 2.5734670100629171e-08 to 2.5734670101605734e-08 seconds.
Warning: Simulation tolerance relaxed to achieve convergence from 2.5734670101605734e-08 to 2.5734670102582297e-08 seconds.
Warning: Simulation tolerance relaxed to achieve convergence from 2.5734670102582297e-08 to 2.5734670103558859e-08 seconds.
Warning: Simulation tolerance relaxed to achieve convergence from 2.5734670103558859e-08 to 2.5734670104535422e-08 seconds.
Warning: Simulation tolerance relaxed to achieve convergence from 2.5734670104535422e-08 to 2.5734670105511985e-08 seconds.

Simulation stopped by user.
Total elapsed time: 87.882 seconds.

Files loaded:
C:\users\dg\Desktop\UF\design1\PowerMesh\spice\sim\plc.net
C:\users\dg\AppData\Local\LTspice\lib\cmp\standard.dio
C:\users\dg\Desktop\UF\design1\PowerMesh\spice\sim\TLP785.mod

