LTspice 24.1.9 for Windows
Circuit: C:\users\dg\Desktop\UF\design1\PowerMesh\spice\sim\plc.net
Start Time: Wed Apr  8 17:11:45 2026
solver = Normal
Maximum thread count: 16
tnom = 27
temp = 27
method = trap

Direct Newton iteration for .op point succeeded.
Warning: Simulation tolerance relaxed to achieve convergence from 2.2312454084647663e-05 to 2.2312454084648662e-05 seconds.
Warning: Simulation tolerance relaxed to achieve convergence from 2.2312470190232465e-05 to 2.2312470190233464e-05 seconds.
Warning: Simulation tolerance relaxed to achieve convergence from 2.2312474557743361e-05 to 2.2312474557744361e-05 seconds.
Warning: Simulation tolerance relaxed to achieve convergence from 2.2504857517853610e-05 to 2.2504857517854610e-05 seconds.
Warning: Simulation tolerance relaxed to achieve convergence from 2.2504888571051069e-05 to 2.2504888571052068e-05 seconds.
Warning: Simulation tolerance relaxed to achieve convergence from 2.2504893686496791e-05 to 2.2504893686497791e-05 seconds.
Warning: Simulation tolerance relaxed to achieve convergence from 2.2504899765253359e-05 to 2.2504899765254358e-05 seconds.
Warning: Simulation tolerance relaxed to achieve convergence from 2.2721612979087067e-05 to 2.2721612979088066e-05 seconds.
Warning: Simulation tolerance relaxed to achieve convergence from 2.2767289208440956e-05 to 2.2767289208441955e-05 seconds.
Warning: Simulation tolerance relaxed to achieve convergence from 2.5050582199554994e-05 to 2.5050582199555993e-05 seconds.
Warning: Simulation tolerance relaxed to achieve convergence from 2.5397065070427878e-05 to 2.5397065070428877e-05 seconds.
Warning: Simulation tolerance relaxed to achieve convergence from 2.5397065500024883e-05 to 2.5397065500025882e-05 seconds.
Warning: Simulation tolerance relaxed to achieve convergence from 2.5397066093081960e-05 to 2.5397066093082959e-05 seconds.
Warning: Simulation tolerance relaxed to achieve convergence from 2.5397066135964202e-05 to 2.5397066135965202e-05 seconds.
Warning: Simulation tolerance relaxed to achieve convergence from 2.5397066137956166e-05 to 2.5397066137957166e-05 seconds.
Warning: Simulation tolerance relaxed to achieve convergence from 2.5397078449096592e-05 to 2.5397078449097591e-05 seconds.
Warning: Simulation tolerance relaxed to achieve convergence from 2.5397078466356250e-05 to 2.5397078466357250e-05 seconds.
Warning: Simulation tolerance relaxed to achieve convergence from 2.5397098264478125e-05 to 2.5397098264479125e-05 seconds.
Warning: Simulation tolerance relaxed to achieve convergence from 2.5397098278440827e-05 to 2.5397098278441826e-05 seconds.
Warning: Simulation tolerance relaxed to achieve convergence from 2.5397098286502683e-05 to 2.5397098286503682e-05 seconds.
Warning: Simulation tolerance relaxed to achieve convergence from 2.5397098328360934e-05 to 2.5397098328361933e-05 seconds.
Warning: Simulation tolerance relaxed to achieve convergence from 2.5397098329725910e-05 to 2.5397098329726910e-05 seconds.
Warning: Simulation tolerance relaxed to achieve convergence from 2.5397098329949906e-05 to 2.5397098329950906e-05 seconds.
Warning: Simulation tolerance relaxed to achieve convergence from 2.5397098342921667e-05 to 2.5397098342922667e-05 seconds.
Warning: Simulation tolerance relaxed to achieve convergence from 2.5397098349670544e-05 to 2.5397098349671544e-05 seconds.
Warning: Simulation tolerance relaxed to achieve convergence from 2.5397098353935467e-05 to 2.5397098353936467e-05 seconds.
Warning: Simulation tolerance relaxed to achieve convergence from 2.5397098359655365e-05 to 2.5397098359656365e-05 seconds.
Warning: Simulation tolerance relaxed to achieve convergence from 2.5397098360699344e-05 to 2.5397098360700343e-05 seconds.
Warning: Simulation tolerance relaxed to achieve convergence from 2.5397098390044814e-05 to 2.5397098390045813e-05 seconds.
Warning: Simulation tolerance relaxed to achieve convergence from 2.5397098420115276e-05 to 2.5397098420116276e-05 seconds.
Warning: Simulation tolerance relaxed to achieve convergence from 2.5397098544342050e-05 to 2.5397098544343049e-05 seconds.
Warning: Simulation tolerance relaxed to achieve convergence from 2.5397099027499817e-05 to 2.5397099027500817e-05 seconds.
Warning: Simulation tolerance relaxed to achieve convergence from 2.5397099033028717e-05 to 2.5397099033029716e-05 seconds.
Warning: Simulation tolerance relaxed to achieve convergence from 2.5397099033519708e-05 to 2.5397099033520707e-05 seconds.
Warning: Simulation tolerance relaxed to achieve convergence from 2.5397099082099829e-05 to 2.5397099082100828e-05 seconds.
Warning: Simulation tolerance relaxed to achieve convergence from 2.5397099085655768e-05 to 2.5397099085656768e-05 seconds.
Warning: Simulation tolerance relaxed to achieve convergence from 2.5397099108853348e-05 to 2.5397099108854347e-05 seconds.
Warning: Simulation tolerance relaxed to achieve convergence from 2.5397099132207923e-05 to 2.5397099132208923e-05 seconds.
Warning: Simulation tolerance relaxed to achieve convergence from 2.5397099144558707e-05 to 2.5397099144559706e-05 seconds.
Warning: Simulation tolerance relaxed to achieve convergence from 2.5397099151578581e-05 to 2.5397099151579580e-05 seconds.
Warning: Simulation tolerance relaxed to achieve convergence from 2.5397099156198495e-05 to 2.5397099156199494e-05 seconds.
Warning: Simulation tolerance relaxed to achieve convergence from 2.5397099156352492e-05 to 2.5397099156353492e-05 seconds.
Warning: Simulation tolerance relaxed to achieve convergence from 2.5397099166066317e-05 to 2.5397099166067316e-05 seconds.
Warning: Simulation tolerance relaxed to achieve convergence from 2.5397099170185242e-05 to 2.5397099170186241e-05 seconds.
Warning: Simulation tolerance relaxed to achieve convergence from 2.5397104142179415e-05 to 2.5397104142180415e-05 seconds.
Warning: Simulation tolerance relaxed to achieve convergence from 2.5397104149819260e-05 to 2.5397104149820259e-05 seconds.
Warning: Simulation tolerance relaxed to achieve convergence from 2.5397104883155256e-05 to 2.5397104883156255e-05 seconds.
Warning: Simulation tolerance relaxed to achieve convergence from 2.5397104911170718e-05 to 2.5397104911171717e-05 seconds.
Warning: Simulation tolerance relaxed to achieve convergence from 2.5397104941645174e-05 to 2.5397104941646174e-05 seconds.
Warning: Simulation tolerance relaxed to achieve convergence from 2.5397104966819719e-05 to 2.5397104966820718e-05 seconds.
Warning: Simulation tolerance relaxed to achieve convergence from 2.5397104976385550e-05 to 2.5397104976386549e-05 seconds.
Warning: Simulation tolerance relaxed to achieve convergence from 2.5397105026621654e-05 to 2.5397105026622654e-05 seconds.
Warning: Simulation tolerance relaxed to achieve convergence from 2.5397105040319414e-05 to 2.5397105040320413e-05 seconds.
Warning: Simulation tolerance relaxed to achieve convergence from 2.5397105044155345e-05 to 2.5397105044156344e-05 seconds.
Warning: Simulation tolerance relaxed to achieve convergence from 2.5397105565253625e-05 to 2.5397105565254625e-05 seconds.
Warning: Simulation tolerance relaxed to achieve convergence from 2.5397105620143475e-05 to 2.5397105620144474e-05 seconds.
Warning: Simulation tolerance relaxed to achieve convergence from 2.5397105626904336e-05 to 2.5397105626905335e-05 seconds.
Warning: Simulation tolerance relaxed to achieve convergence from 2.5397105666888611e-05 to 2.5397105666889610e-05 seconds.
Warning: Simulation tolerance relaxed to achieve convergence from 2.5397105683637312e-05 to 2.5397105683638311e-05 seconds.
Warning: Simulation tolerance relaxed to achieve convergence from 2.5397105702776973e-05 to 2.5397105702777973e-05 seconds.
Warning: Simulation tolerance relaxed to achieve convergence from 2.5397105706456908e-05 to 2.5397105706457907e-05 seconds.
Warning: Simulation tolerance relaxed to achieve convergence from 2.5397105724795574e-05 to 2.5397105724796574e-05 seconds.
Warning: Simulation tolerance relaxed to achieve convergence from 2.5397105735415382e-05 to 2.5397105735416382e-05 seconds.
Warning: Simulation tolerance relaxed to achieve convergence from 2.5397105739873300e-05 to 2.5397105739874299e-05 seconds.
Warning: Simulation tolerance relaxed to achieve convergence from 2.5397105761498918e-05 to 2.5397105761499918e-05 seconds.
Warning: Simulation tolerance relaxed to achieve convergence from 2.5397105788859434e-05 to 2.5397105788860434e-05 seconds.
Warning: Simulation tolerance relaxed to achieve convergence from 2.5397105796186300e-05 to 2.5397105796187299e-05 seconds.
Warning: Simulation tolerance relaxed to achieve convergence from 2.5397105908721267e-05 to 2.5397105908722267e-05 seconds.
Warning: Simulation tolerance relaxed to achieve convergence from 2.5397106383358138e-05 to 2.5397106383359137e-05 seconds.
Warning: Simulation tolerance relaxed to achieve convergence from 2.5397106389188035e-05 to 2.5397106389189035e-05 seconds.
Warning: Simulation tolerance relaxed to achieve convergence from 2.5397106439843119e-05 to 2.5397106439844119e-05 seconds.
Warning: Simulation tolerance relaxed to achieve convergence from 2.5397106446753997e-05 to 2.5397106446754996e-05 seconds.
Warning: Simulation tolerance relaxed to achieve convergence from 2.5397106517179721e-05 to 2.5397106517180721e-05 seconds.
Warning: Simulation tolerance relaxed to achieve convergence from 2.5397107048001778e-05 to 2.5397107048002777e-05 seconds.
Warning: Simulation tolerance relaxed to achieve convergence from 2.5397107096757766e-05 to 2.5397107096758766e-05 seconds.
Warning: Simulation tolerance relaxed to achieve convergence from 2.5397107117972364e-05 to 2.5397107117973363e-05 seconds.
Warning: Simulation tolerance relaxed to achieve convergence from 2.5397107119446337e-05 to 2.5397107119447336e-05 seconds.
Warning: Simulation tolerance relaxed to achieve convergence from 2.5397107141637926e-05 to 2.5397107141638925e-05 seconds.
Warning: Simulation tolerance relaxed to achieve convergence from 2.5397107199574891e-05 to 2.5397107199575891e-05 seconds.
Warning: Simulation tolerance relaxed to achieve convergence from 2.5397107200474874e-05 to 2.5397107200475873e-05 seconds.
Warning: Simulation tolerance relaxed to achieve convergence from 2.5397107213562644e-05 to 2.5397107213563644e-05 seconds.
Warning: Simulation tolerance relaxed to achieve convergence from 2.5397107217502574e-05 to 2.5397107217503574e-05 seconds.
Warning: Simulation tolerance relaxed to achieve convergence from 2.5397107227319401e-05 to 2.5397107227320401e-05 seconds.
Warning: Simulation tolerance relaxed to achieve convergence from 2.5397107242462135e-05 to 2.5397107242463134e-05 seconds.
Warning: Simulation tolerance relaxed to achieve convergence from 2.5397107549406292e-05 to 2.5397107549407291e-05 seconds.
Warning: Simulation tolerance relaxed to achieve convergence from 2.5397107848669625e-05 to 2.5397107848670625e-05 seconds.
Warning: Simulation tolerance relaxed to achieve convergence from 2.5397107857817466e-05 to 2.5397107857818465e-05 seconds.
Warning: Simulation tolerance relaxed to achieve convergence from 2.5397107863830356e-05 to 2.5397107863831356e-05 seconds.
Warning: Simulation tolerance relaxed to achieve convergence from 2.5397107883482009e-05 to 2.5397107883483008e-05 seconds.
Warning: Simulation tolerance relaxed to achieve convergence from 2.5397107909607544e-05 to 2.5397107909608543e-05 seconds.
Warning: Simulation tolerance relaxed to achieve convergence from 2.5397107912695487e-05 to 2.5397107912696487e-05 seconds.
Warning: Simulation tolerance relaxed to achieve convergence from 2.5397107915395439e-05 to 2.5397107915396438e-05 seconds.
Warning: Simulation tolerance relaxed to achieve convergence from 2.5397107922294315e-05 to 2.5397107922295315e-05 seconds.
Warning: Simulation tolerance relaxed to achieve convergence from 2.5397107950057812e-05 to 2.5397107950058812e-05 seconds.
Warning: Simulation tolerance relaxed to achieve convergence from 2.5397107976650337e-05 to 2.5397107976651337e-05 seconds.
Warning: Simulation tolerance relaxed to achieve convergence from 2.5397108503221627e-05 to 2.5397108503222626e-05 seconds.
Warning: Simulation tolerance relaxed to achieve convergence from 2.5397108595224695e-05 to 2.5397108595225695e-05 seconds.
Warning: Simulation tolerance relaxed to achieve convergence from 2.5397108608805452e-05 to 2.5397108608806452e-05 seconds.
Warning: Simulation tolerance relaxed to achieve convergence from 2.5397108642588853e-05 to 2.5397108642589853e-05 seconds.
Warning: Simulation tolerance relaxed to achieve convergence from 2.5397108646282788e-05 to 2.5397108646283787e-05 seconds.
Warning: Simulation tolerance relaxed to achieve convergence from 2.5397108660851527e-05 to 2.5397108660852527e-05 seconds.
Warning: Simulation tolerance relaxed to achieve convergence from 2.5397108673893290e-05 to 2.5397108673894290e-05 seconds.
Warning: Simulation tolerance relaxed to achieve convergence from 2.5397108677024232e-05 to 2.5397108677025232e-05 seconds.
Warning: Simulation tolerance relaxed to achieve convergence from 2.5397108692488953e-05 to 2.5397108692489953e-05 seconds.
Warning: Simulation tolerance relaxed to achieve convergence from 2.5397108737635152e-05 to 2.5397108737636152e-05 seconds.
Warning: Simulation tolerance relaxed to achieve convergence from 2.5397109321648099e-05 to 2.5397109321649099e-05 seconds.
Warning: Simulation tolerance relaxed to achieve convergence from 2.5397109321791095e-05 to 2.5397109321792095e-05 seconds.
Warning: Simulation tolerance relaxed to achieve convergence from 2.5397109323389064e-05 to 2.5397109323390063e-05 seconds.
Warning: Simulation tolerance relaxed to achieve convergence from 2.5397109330093936e-05 to 2.5397109330094936e-05 seconds.
Warning: Simulation tolerance relaxed to achieve convergence from 2.5397109333145884e-05 to 2.5397109333146883e-05 seconds.
Warning: Simulation tolerance relaxed to achieve convergence from 2.5397109367219278e-05 to 2.5397109367220278e-05 seconds.
Warning: Simulation tolerance relaxed to achieve convergence from 2.5397109369883231e-05 to 2.5397109369884230e-05 seconds.
Warning: Simulation tolerance relaxed to achieve convergence from 2.5397109394470791e-05 to 2.5397109394471791e-05 seconds.
Warning: Simulation tolerance relaxed to achieve convergence from 2.5397109398381722e-05 to 2.5397109398382722e-05 seconds.
Warning: Simulation tolerance relaxed to achieve convergence from 2.5397109402789644e-05 to 2.5397109402790644e-05 seconds.
Warning: Simulation tolerance relaxed to achieve convergence from 2.5397109415152426e-05 to 2.5397109415153425e-05 seconds.
Warning: Simulation tolerance relaxed to achieve convergence from 2.5397110079013993e-05 to 2.5397110079014993e-05 seconds.
Warning: Simulation tolerance relaxed to achieve convergence from 2.5397110113444375e-05 to 2.5397110113445374e-05 seconds.
Warning: Simulation tolerance relaxed to achieve convergence from 2.5397110129521091e-05 to 2.5397110129522090e-05 seconds.
Warning: Simulation tolerance relaxed to achieve convergence from 2.5397110145823802e-05 to 2.5397110145824801e-05 seconds.
Warning: Simulation tolerance relaxed to achieve convergence from 2.5397110149911728e-05 to 2.5397110149912728e-05 seconds.
Warning: Simulation tolerance relaxed to achieve convergence from 2.5397110177194246e-05 to 2.5397110177195246e-05 seconds.
Warning: Simulation tolerance relaxed to achieve convergence from 2.5397110190715006e-05 to 2.5397110190716006e-05 seconds.
Warning: Simulation tolerance relaxed to achieve convergence from 2.5397110411418832e-05 to 2.5397110411419832e-05 seconds.
Warning: Simulation tolerance relaxed to achieve convergence from 2.5397110492573330e-05 to 2.5397110492574330e-05 seconds.
Warning: Simulation tolerance relaxed to achieve convergence from 2.5397110823772100e-05 to 2.5397110823773099e-05 seconds.
Warning: Simulation tolerance relaxed to achieve convergence from 2.5397110850072629e-05 to 2.5397110850073628e-05 seconds.
Warning: Simulation tolerance relaxed to achieve convergence from 2.5397110870345275e-05 to 2.5397110870346274e-05 seconds.
Warning: Simulation tolerance relaxed to achieve convergence from 2.5397110875585180e-05 to 2.5397110875586179e-05 seconds.
Warning: Simulation tolerance relaxed to achieve convergence from 2.5397110886753980e-05 to 2.5397110886754979e-05 seconds.
Warning: Simulation tolerance relaxed to achieve convergence from 2.5397110892188882e-05 to 2.5397110892189882e-05 seconds.
Warning: Simulation tolerance relaxed to achieve convergence from 2.5397110906452629e-05 to 2.5397110906453628e-05 seconds.
Warning: Simulation tolerance relaxed to achieve convergence from 2.5397111458979420e-05 to 2.5397111458980420e-05 seconds.
Warning: Simulation tolerance relaxed to achieve convergence from 2.5397111529992904e-05 to 2.5397111529993903e-05 seconds.
Warning: Simulation tolerance relaxed to achieve convergence from 2.5397111545036602e-05 to 2.5397111545037602e-05 seconds.
Warning: Simulation tolerance relaxed to achieve convergence from 2.5397111592577753e-05 to 2.5397111592578752e-05 seconds.
Warning: Simulation tolerance relaxed to achieve convergence from 2.5397111597103673e-05 to 2.5397111597104673e-05 seconds.
Warning: Simulation tolerance relaxed to achieve convergence from 2.5397111604878535e-05 to 2.5397111604879534e-05 seconds.
Warning: Simulation tolerance relaxed to achieve convergence from 2.5397111613098393e-05 to 2.5397111613099393e-05 seconds.
Warning: Simulation tolerance relaxed to achieve convergence from 2.5397111655750639e-05 to 2.5397111655751638e-05 seconds.
Warning: Simulation tolerance relaxed to achieve convergence from 2.5397111738038172e-05 to 2.5397111738039171e-05 seconds.
Warning: Simulation tolerance relaxed to achieve convergence from 2.5397111912119787e-05 to 2.5397111912120786e-05 seconds.
Warning: Simulation tolerance relaxed to achieve convergence from 2.5397112275693016e-05 to 2.5397112275694016e-05 seconds.
Warning: Simulation tolerance relaxed to achieve convergence from 2.5397112278030966e-05 to 2.5397112278031966e-05 seconds.
Warning: Simulation tolerance relaxed to achieve convergence from 2.5397112318627219e-05 to 2.5397112318628218e-05 seconds.
Warning: Simulation tolerance relaxed to achieve convergence from 2.5397112355054569e-05 to 2.5397112355055568e-05 seconds.
Warning: Simulation tolerance relaxed to achieve convergence from 2.5397112385250033e-05 to 2.5397112385251032e-05 seconds.
Warning: Simulation tolerance relaxed to achieve convergence from 2.5397112401908735e-05 to 2.5397112401909734e-05 seconds.
Warning: Simulation tolerance relaxed to achieve convergence from 2.5397112426784294e-05 to 2.5397112426785293e-05 seconds.
Warning: Simulation tolerance relaxed to achieve convergence from 2.5397112435406140e-05 to 2.5397112435407140e-05 seconds.
Warning: Simulation tolerance relaxed to achieve convergence from 2.5397112593972195e-05 to 2.5397112593973195e-05 seconds.
Warning: Simulation tolerance relaxed to achieve convergence from 2.5397112751476207e-05 to 2.5397112751477206e-05 seconds.
Warning: Simulation tolerance relaxed to achieve convergence from 2.5397113024305034e-05 to 2.5397113024306034e-05 seconds.
Warning: Simulation tolerance relaxed to achieve convergence from 2.5397113026342996e-05 to 2.5397113026343995e-05 seconds.
Warning: Simulation tolerance relaxed to achieve convergence from 2.5397113038139783e-05 to 2.5397113038140782e-05 seconds.
Warning: Simulation tolerance relaxed to achieve convergence from 2.5397113043418685e-05 to 2.5397113043419685e-05 seconds.
Warning: Simulation tolerance relaxed to achieve convergence from 2.5397113056146453e-05 to 2.5397113056147453e-05 seconds.
Warning: Simulation tolerance relaxed to achieve convergence from 2.5397113088275873e-05 to 2.5397113088276873e-05 seconds.
Warning: Simulation tolerance relaxed to achieve convergence from 2.5397113095650742e-05 to 2.5397113095651741e-05 seconds.
Warning: Simulation tolerance relaxed to achieve convergence from 2.5397113097793701e-05 to 2.5397113097794701e-05 seconds.
Warning: Simulation tolerance relaxed to achieve convergence from 2.5397113118475315e-05 to 2.5397113118476314e-05 seconds.
Warning: Simulation tolerance relaxed to achieve convergence from 2.5397113126742167e-05 to 2.5397113126743166e-05 seconds.
Warning: Simulation tolerance relaxed to achieve convergence from 2.5397113160490565e-05 to 2.5397113160491564e-05 seconds.
Warning: Simulation tolerance relaxed to achieve convergence from 2.5397113169084412e-05 to 2.5397113169085412e-05 seconds.
Warning: Simulation tolerance relaxed to achieve convergence from 2.5397113174691313e-05 to 2.5397113174692312e-05 seconds.
Warning: Simulation tolerance relaxed to achieve convergence from 2.5397113176875275e-05 to 2.5397113176876275e-05 seconds.
Warning: Simulation tolerance relaxed to achieve convergence from 2.5397113755977393e-05 to 2.5397113755978393e-05 seconds.
Warning: Simulation tolerance relaxed to achieve convergence from 2.5397113759065323e-05 to 2.5397113759066323e-05 seconds.
Warning: Simulation tolerance relaxed to achieve convergence from 2.5397113762954251e-05 to 2.5397113762955251e-05 seconds.
Warning: Simulation tolerance relaxed to achieve convergence from 2.5397113786366831e-05 to 2.5397113786367831e-05 seconds.
Warning: Simulation tolerance relaxed to achieve convergence from 2.5397113826127120e-05 to 2.5397113826128120e-05 seconds.
Warning: Simulation tolerance relaxed to achieve convergence from 2.5397113838342901e-05 to 2.5397113838343900e-05 seconds.
Warning: Simulation tolerance relaxed to achieve convergence from 2.5397113851645655e-05 to 2.5397113851646654e-05 seconds.
Warning: Simulation tolerance relaxed to achieve convergence from 2.5397113867232369e-05 to 2.5397113867233369e-05 seconds.
Warning: Simulation tolerance relaxed to achieve convergence from 2.5397113917329482e-05 to 2.5397113917330482e-05 seconds.
Warning: Simulation tolerance relaxed to achieve convergence from 2.5397114488047766e-05 to 2.5397114488048766e-05 seconds.
Warning: Simulation tolerance relaxed to achieve convergence from 2.5397114489126747e-05 to 2.5397114489127747e-05 seconds.
Warning: Simulation tolerance relaxed to achieve convergence from 2.5397114497022592e-05 to 2.5397114497023591e-05 seconds.
Warning: Simulation tolerance relaxed to achieve convergence from 2.5397114520495166e-05 to 2.5397114520496165e-05 seconds.
Warning: Simulation tolerance relaxed to achieve convergence from 2.5397114536830874e-05 to 2.5397114536831873e-05 seconds.
Warning: Simulation tolerance relaxed to achieve convergence from 2.5397114539651822e-05 to 2.5397114539652822e-05 seconds.
Warning: Simulation tolerance relaxed to achieve convergence from 2.5397114543686748e-05 to 2.5397114543687748e-05 seconds.
Warning: Simulation tolerance relaxed to achieve convergence from 2.5397114554749547e-05 to 2.5397114554750547e-05 seconds.
Warning: Simulation tolerance relaxed to achieve convergence from 2.5397114579505109e-05 to 2.5397114579506108e-05 seconds.
Warning: Simulation tolerance relaxed to achieve convergence from 2.5397114600477732e-05 to 2.5397114600478732e-05 seconds.
Warning: Simulation tolerance relaxed to achieve convergence from 2.5397114603764671e-05 to 2.5397114603765670e-05 seconds.
Warning: Simulation tolerance relaxed to achieve convergence from 2.5397114634496124e-05 to 2.5397114634497123e-05 seconds.
Warning: Simulation tolerance relaxed to achieve convergence from 2.5397114658929687e-05 to 2.5397114658930687e-05 seconds.
Warning: Simulation tolerance relaxed to achieve convergence from 2.5397115282543946e-05 to 2.5397115282544945e-05 seconds.
Warning: Simulation tolerance relaxed to achieve convergence from 2.5397115305165533e-05 to 2.5397115305166532e-05 seconds.
Warning: Simulation tolerance relaxed to achieve convergence from 2.5397115323568204e-05 to 2.5397115323569204e-05 seconds.
Warning: Simulation tolerance relaxed to achieve convergence from 2.5397115328076124e-05 to 2.5397115328077123e-05 seconds.
Warning: Simulation tolerance relaxed to achieve convergence from 2.5397115329089104e-05 to 2.5397115329090103e-05 seconds.
Warning: Simulation tolerance relaxed to achieve convergence from 2.5397115341361880e-05 to 2.5397115341362879e-05 seconds.
Warning: Simulation tolerance relaxed to achieve convergence from 2.5397115380303172e-05 to 2.5397115380304172e-05 seconds.
Warning: Simulation tolerance relaxed to achieve convergence from 2.5397115494613135e-05 to 2.5397115494614134e-05 seconds.
Warning: Simulation tolerance relaxed to achieve convergence from 2.5397115562561749e-05 to 2.5397115562562748e-05 seconds.
Warning: Simulation tolerance relaxed to achieve convergence from 2.5397115955508376e-05 to 2.5397115955509376e-05 seconds.
Warning: Simulation tolerance relaxed to achieve convergence from 2.5397115965758170e-05 to 2.5397115965759169e-05 seconds.
Warning: Simulation tolerance relaxed to achieve convergence from 2.5397115971764047e-05 to 2.5397115971765046e-05 seconds.
Warning: Simulation tolerance relaxed to achieve convergence from 2.5397115977398930e-05 to 2.5397115977399929e-05 seconds.
Warning: Simulation tolerance relaxed to achieve convergence from 2.5397115982908825e-05 to 2.5397115982909824e-05 seconds.
Warning: Simulation tolerance relaxed to achieve convergence from 2.5397115985085788e-05 to 2.5397115985086787e-05 seconds.
Warning: Simulation tolerance relaxed to achieve convergence from 2.5397116003867459e-05 to 2.5397116003868459e-05 seconds.
Warning: Simulation tolerance relaxed to achieve convergence from 2.5397116022855122e-05 to 2.5397116022856122e-05 seconds.
Warning: Simulation tolerance relaxed to achieve convergence from 2.5397116038712843e-05 to 2.5397116038713842e-05 seconds.
Warning: Simulation tolerance relaxed to achieve convergence from 2.5397116043099765e-05 to 2.5397116043100765e-05 seconds.
Warning: Simulation tolerance relaxed to achieve convergence from 2.5397116050439635e-05 to 2.5397116050440634e-05 seconds.
Warning: Simulation tolerance relaxed to achieve convergence from 2.5397116053855569e-05 to 2.5397116053856569e-05 seconds.
Warning: Simulation tolerance relaxed to achieve convergence from 2.5397116061415433e-05 to 2.5397116061416433e-05 seconds.
Warning: Simulation tolerance relaxed to achieve convergence from 2.5397116063716391e-05 to 2.5397116063717391e-05 seconds.
Warning: Simulation tolerance relaxed to achieve convergence from 2.5397116068095315e-05 to 2.5397116068096314e-05 seconds.
Warning: Simulation tolerance relaxed to achieve convergence from 2.5397116076999149e-05 to 2.5397116077000148e-05 seconds.
Warning: Simulation tolerance relaxed to achieve convergence from 2.5397116081502071e-05 to 2.5397116081503070e-05 seconds.
Warning: Simulation tolerance relaxed to achieve convergence from 2.5397116099872735e-05 to 2.5397116099873734e-05 seconds.
Warning: Simulation tolerance relaxed to achieve convergence from 2.5397116123384313e-05 to 2.5397116123385312e-05 seconds.
Warning: Simulation tolerance relaxed to achieve convergence from 2.5397116141963977e-05 to 2.5397116141964977e-05 seconds.
Warning: Simulation tolerance relaxed to achieve convergence from 2.5397116700692479e-05 to 2.5397116700693479e-05 seconds.
Warning: Simulation tolerance relaxed to achieve convergence from 2.5397116734781825e-05 to 2.5397116734782825e-05 seconds.
Warning: Simulation tolerance relaxed to achieve convergence from 2.5397116736496796e-05 to 2.5397116736497795e-05 seconds.
Warning: Simulation tolerance relaxed to achieve convergence from 2.5397116753423492e-05 to 2.5397116753424492e-05 seconds.
Warning: Simulation tolerance relaxed to achieve convergence from 2.5397116765135288e-05 to 2.5397116765136288e-05 seconds.
Warning: Simulation tolerance relaxed to achieve convergence from 2.5397116810871459e-05 to 2.5397116810872458e-05 seconds.
Warning: Simulation tolerance relaxed to achieve convergence from 2.5397116811154453e-05 to 2.5397116811155452e-05 seconds.
Warning: Simulation tolerance relaxed to achieve convergence from 2.5397116815031380e-05 to 2.5397116815032380e-05 seconds.
Warning: Simulation tolerance relaxed to achieve convergence from 2.5397116818672317e-05 to 2.5397116818673317e-05 seconds.
Warning: Simulation tolerance relaxed to achieve convergence from 2.5397116875190306e-05 to 2.5397116875191306e-05 seconds.
Warning: Simulation tolerance relaxed to achieve convergence from 2.5397117063470680e-05 to 2.5397117063471680e-05 seconds.
Warning: Simulation tolerance relaxed to achieve convergence from 2.5397117063862673e-05 to 2.5397117063863673e-05 seconds.
Warning: Simulation tolerance relaxed to achieve convergence from 2.5397117460127244e-05 to 2.5397117460128244e-05 seconds.
Warning: Simulation tolerance relaxed to achieve convergence from 2.5397117472749014e-05 to 2.5397117472750014e-05 seconds.
Warning: Simulation tolerance relaxed to achieve convergence from 2.5397117525385068e-05 to 2.5397117525386068e-05 seconds.
Warning: Simulation tolerance relaxed to achieve convergence from 2.5397117534801899e-05 to 2.5397117534802899e-05 seconds.
Warning: Simulation tolerance relaxed to achieve convergence from 2.5397117542852748e-05 to 2.5397117542853747e-05 seconds.
Warning: Simulation tolerance relaxed to achieve convergence from 2.5397117546912675e-05 to 2.5397117546913674e-05 seconds.
Warning: Simulation tolerance relaxed to achieve convergence from 2.5397117575867151e-05 to 2.5397117575868151e-05 seconds.
Warning: Simulation tolerance relaxed to achieve convergence from 2.5397117578812098e-05 to 2.5397117578813098e-05 seconds.
Warning: Simulation tolerance relaxed to achieve convergence from 2.5397118178856848e-05 to 2.5397118178857848e-05 seconds.
Warning: Simulation tolerance relaxed to achieve convergence from 2.5397118180179822e-05 to 2.5397118180180822e-05 seconds.
Warning: Simulation tolerance relaxed to achieve convergence from 2.5397118180951805e-05 to 2.5397118180952804e-05 seconds.
Warning: Simulation tolerance relaxed to achieve convergence from 2.5397118185410712e-05 to 2.5397118185411711e-05 seconds.
Warning: Simulation tolerance relaxed to achieve convergence from 2.5397118191182591e-05 to 2.5397118191183590e-05 seconds.
Warning: Simulation tolerance relaxed to achieve convergence from 2.5397118262882300e-05 to 2.5397118262883299e-05 seconds.
Warning: Simulation tolerance relaxed to achieve convergence from 2.5397118289526826e-05 to 2.5397118289527825e-05 seconds.
Warning: Simulation tolerance relaxed to achieve convergence from 2.5397118346462812e-05 to 2.5397118346463811e-05 seconds.
Warning: Simulation tolerance relaxed to achieve convergence from 2.5397118497851018e-05 to 2.5397118497852018e-05 seconds.
Warning: Simulation tolerance relaxed to achieve convergence from 2.5397118918995003e-05 to 2.5397118918996003e-05 seconds.
Warning: Simulation tolerance relaxed to achieve convergence from 2.5397118963439185e-05 to 2.5397118963440184e-05 seconds.
Warning: Simulation tolerance relaxed to achieve convergence from 2.5397119020332168e-05 to 2.5397119020333168e-05 seconds.
Warning: Simulation tolerance relaxed to achieve convergence from 2.5397119027830030e-05 to 2.5397119027831029e-05 seconds.
Warning: Simulation tolerance relaxed to achieve convergence from 2.5397119082332039e-05 to 2.5397119082333039e-05 seconds.
Warning: Simulation tolerance relaxed to achieve convergence from 2.5397119091538878e-05 to 2.5397119091539877e-05 seconds.
Warning: Simulation tolerance relaxed to achieve convergence from 2.5397119674635864e-05 to 2.5397119674636863e-05 seconds.
Warning: Simulation tolerance relaxed to achieve convergence from 2.5397119702445375e-05 to 2.5397119702446375e-05 seconds.
Warning: Simulation tolerance relaxed to achieve convergence from 2.5397119711300220e-05 to 2.5397119711301220e-05 seconds.
Warning: Simulation tolerance relaxed to achieve convergence from 2.5397119714841153e-05 to 2.5397119714842153e-05 seconds.
Warning: Simulation tolerance relaxed to achieve convergence from 2.5397119745333601e-05 to 2.5397119745334600e-05 seconds.
Warning: Simulation tolerance relaxed to achieve convergence from 2.5397119754781433e-05 to 2.5397119754782433e-05 seconds.
Warning: Simulation tolerance relaxed to achieve convergence from 2.5397119758294370e-05 to 2.5397119758295370e-05 seconds.
Warning: Simulation tolerance relaxed to achieve convergence from 2.5397119776178055e-05 to 2.5397119776179054e-05 seconds.
Warning: Simulation tolerance relaxed to achieve convergence from 2.5397119836687974e-05 to 2.5397119836688974e-05 seconds.
Warning: Simulation tolerance relaxed to achieve convergence from 2.5397120311279203e-05 to 2.5397120311280203e-05 seconds.
Warning: Simulation tolerance relaxed to achieve convergence from 2.5397120401680289e-05 to 2.5397120401681288e-05 seconds.
Warning: Simulation tolerance relaxed to achieve convergence from 2.5397120406139195e-05 to 2.5397120406140195e-05 seconds.
Warning: Simulation tolerance relaxed to achieve convergence from 2.5397120435442649e-05 to 2.5397120435443649e-05 seconds.
Warning: Simulation tolerance relaxed to achieve convergence from 2.5397120441224550e-05 to 2.5397120441225550e-05 seconds.
Warning: Simulation tolerance relaxed to achieve convergence from 2.5397120444809489e-05 to 2.5397120444810488e-05 seconds.
Warning: Simulation tolerance relaxed to achieve convergence from 2.5397120475783942e-05 to 2.5397120475784941e-05 seconds.
Warning: Simulation tolerance relaxed to achieve convergence from 2.5397120481797832e-05 to 2.5397120481798831e-05 seconds.
Warning: Simulation tolerance relaxed to achieve convergence from 2.5397120497067562e-05 to 2.5397120497068562e-05 seconds.
Warning: Simulation tolerance relaxed to achieve convergence from 2.5397120499434518e-05 to 2.5397120499435517e-05 seconds.
Warning: Simulation tolerance relaxed to achieve convergence from 2.5397120525729046e-05 to 2.5397120525730046e-05 seconds.
Warning: Simulation tolerance relaxed to achieve convergence from 2.5397120525862044e-05 to 2.5397120525863044e-05 seconds.
Warning: Simulation tolerance relaxed to achieve convergence from 2.5397120536292859e-05 to 2.5397120536293858e-05 seconds.
Warning: Simulation tolerance relaxed to achieve convergence from 2.5397120559328451e-05 to 2.5397120559329451e-05 seconds.
Warning: Simulation tolerance relaxed to achieve convergence from 2.5397120559882442e-05 to 2.5397120559883441e-05 seconds.
Warning: Simulation tolerance relaxed to achieve convergence from 2.5397120788143099e-05 to 2.5397120788144099e-05 seconds.
Warning: Simulation tolerance relaxed to achieve convergence from 2.5397121137289653e-05 to 2.5397121137290653e-05 seconds.
Warning: Simulation tolerance relaxed to achieve convergence from 2.5397121142970547e-05 to 2.5397121142971547e-05 seconds.
Warning: Simulation tolerance relaxed to achieve convergence from 2.5397121151692371e-05 to 2.5397121151693371e-05 seconds.
Warning: Simulation tolerance relaxed to achieve convergence from 2.5397121179892863e-05 to 2.5397121179893862e-05 seconds.
Warning: Simulation tolerance relaxed to achieve convergence from 2.5397121210005328e-05 to 2.5397121210006327e-05 seconds.
Warning: Simulation tolerance relaxed to achieve convergence from 2.5397121223700079e-05 to 2.5397121223701078e-05 seconds.
Warning: Simulation tolerance relaxed to achieve convergence from 2.5397121225883038e-05 to 2.5397121225884038e-05 seconds.
Warning: Simulation tolerance relaxed to achieve convergence from 2.5397121242867736e-05 to 2.5397121242868736e-05 seconds.
Warning: Simulation tolerance relaxed to achieve convergence from 2.5397121253013554e-05 to 2.5397121253014554e-05 seconds.
Warning: Simulation tolerance relaxed to achieve convergence from 2.5397121261110403e-05 to 2.5397121261111403e-05 seconds.
Warning: Simulation tolerance relaxed to achieve convergence from 2.5397121312417486e-05 to 2.5397121312418486e-05 seconds.
Warning: Simulation tolerance relaxed to achieve convergence from 2.5397121457343787e-05 to 2.5397121457344786e-05 seconds.
Warning: Simulation tolerance relaxed to achieve convergence from 2.5397121545778045e-05 to 2.5397121545779044e-05 seconds.
Warning: Simulation tolerance relaxed to achieve convergence from 2.5397121873936904e-05 to 2.5397121873937904e-05 seconds.
Warning: Simulation tolerance relaxed to achieve convergence from 2.5397121876165861e-05 to 2.5397121876166861e-05 seconds.
Warning: Simulation tolerance relaxed to achieve convergence from 2.5397121908654247e-05 to 2.5397121908655247e-05 seconds.
Warning: Simulation tolerance relaxed to achieve convergence from 2.5397121957730364e-05 to 2.5397121957731363e-05 seconds.
Warning: Simulation tolerance relaxed to achieve convergence from 2.5397121991797761e-05 to 2.5397121991798761e-05 seconds.
Warning: Simulation tolerance relaxed to achieve convergence from 2.5397122039379908e-05 to 2.5397122039380908e-05 seconds.
Warning: Simulation tolerance relaxed to achieve convergence from 2.5397122469383973e-05 to 2.5397122469384973e-05 seconds.
Warning: Simulation tolerance relaxed to achieve convergence from 2.5397122617645039e-05 to 2.5397122617646038e-05 seconds.
Warning: Simulation tolerance relaxed to achieve convergence from 2.5397122626531838e-05 to 2.5397122626532837e-05 seconds.
Warning: Simulation tolerance relaxed to achieve convergence from 2.5397122631018751e-05 to 2.5397122631019750e-05 seconds.
Warning: Simulation tolerance relaxed to achieve convergence from 2.5397122660815215e-05 to 2.5397122660816214e-05 seconds.
Warning: Simulation tolerance relaxed to achieve convergence from 2.5397122695980594e-05 to 2.5397122695981594e-05 seconds.
Warning: Simulation tolerance relaxed to achieve convergence from 2.5397122708278377e-05 to 2.5397122708279377e-05 seconds.
Warning: Simulation tolerance relaxed to achieve convergence from 2.5397122734597910e-05 to 2.5397122734598910e-05 seconds.
Warning: Simulation tolerance relaxed to achieve convergence from 2.5397123337947685e-05 to 2.5397123337948684e-05 seconds.
Warning: Simulation tolerance relaxed to achieve convergence from 2.5397123365465115e-05 to 2.5397123365466115e-05 seconds.
Warning: Simulation tolerance relaxed to achieve convergence from 2.5397123366306097e-05 to 2.5397123366307097e-05 seconds.
Warning: Simulation tolerance relaxed to achieve convergence from 2.5397123378082884e-05 to 2.5397123378083884e-05 seconds.
Warning: Simulation tolerance relaxed to achieve convergence from 2.5397123410823296e-05 to 2.5397123410824296e-05 seconds.
Warning: Simulation tolerance relaxed to achieve convergence from 2.5397123441117751e-05 to 2.5397123441118751e-05 seconds.
Warning: Simulation tolerance relaxed to achieve convergence from 2.5397123449845596e-05 to 2.5397123449846595e-05 seconds.
Warning: Simulation tolerance relaxed to achieve convergence from 2.5397123504828608e-05 to 2.5397123504829608e-05 seconds.
Warning: Simulation tolerance relaxed to achieve convergence from 2.5397124088337608e-05 to 2.5397124088338608e-05 seconds.
Warning: Simulation tolerance relaxed to achieve convergence from 2.5397124095636454e-05 to 2.5397124095637453e-05 seconds.
Warning: Simulation tolerance relaxed to achieve convergence from 2.5397124098835386e-05 to 2.5397124098836385e-05 seconds.
Warning: Simulation tolerance relaxed to achieve convergence from 2.5397124126317878e-05 to 2.5397124126318877e-05 seconds.
Warning: Simulation tolerance relaxed to achieve convergence from 2.5397124134081741e-05 to 2.5397124134082741e-05 seconds.
Warning: Simulation tolerance relaxed to achieve convergence from 2.5397124184044847e-05 to 2.5397124184045846e-05 seconds.
Warning: Simulation tolerance relaxed to achieve convergence from 2.5397124190151738e-05 to 2.5397124190152737e-05 seconds.
Warning: Simulation tolerance relaxed to achieve convergence from 2.5397124205375468e-05 to 2.5397124205376467e-05 seconds.
Warning: Simulation tolerance relaxed to achieve convergence from 2.5397124216988262e-05 to 2.5397124216989262e-05 seconds.
Warning: Simulation tolerance relaxed to achieve convergence from 2.5397124218647230e-05 to 2.5397124218648230e-05 seconds.
Warning: Simulation tolerance relaxed to achieve convergence from 2.5397124221321185e-05 to 2.5397124221322184e-05 seconds.
Warning: Simulation tolerance relaxed to achieve convergence from 2.5397124233452967e-05 to 2.5397124233453966e-05 seconds.
Warning: Simulation tolerance relaxed to achieve convergence from 2.5397124241623822e-05 to 2.5397124241624822e-05 seconds.
Warning: Simulation tolerance relaxed to achieve convergence from 2.5397124259175511e-05 to 2.5397124259176510e-05 seconds.
Warning: Simulation tolerance relaxed to achieve convergence from 2.5397124265158403e-05 to 2.5397124265159402e-05 seconds.
Warning: Simulation tolerance relaxed to achieve convergence from 2.5397124839837524e-05 to 2.5397124839838524e-05 seconds.
Warning: Simulation tolerance relaxed to achieve convergence from 2.5397124889577627e-05 to 2.5397124889578626e-05 seconds.
Warning: Simulation tolerance relaxed to achieve convergence from 2.5397124893619553e-05 to 2.5397124893620552e-05 seconds.
Warning: Simulation tolerance relaxed to achieve convergence from 2.5397124914505180e-05 to 2.5397124914506179e-05 seconds.
Warning: Simulation tolerance relaxed to achieve convergence from 2.5397124921668046e-05 to 2.5397124921669045e-05 seconds.
Warning: Simulation tolerance relaxed to achieve convergence from 2.5397124940409710e-05 to 2.5397124940410710e-05 seconds.
Warning: Simulation tolerance relaxed to achieve convergence from 2.5397124949926542e-05 to 2.5397124949927542e-05 seconds.
Warning: Simulation tolerance relaxed to achieve convergence from 2.5397125130656292e-05 to 2.5397125130657291e-05 seconds.
Warning: Simulation tolerance relaxed to achieve convergence from 2.5397125573586822e-05 to 2.5397125573587821e-05 seconds.
Warning: Simulation tolerance relaxed to achieve convergence from 2.5397125575851771e-05 to 2.5397125575852770e-05 seconds.
Warning: Simulation tolerance relaxed to achieve convergence from 2.5397125582557632e-05 to 2.5397125582558632e-05 seconds.
Warning: Simulation tolerance relaxed to achieve convergence from 2.5397125596916369e-05 to 2.5397125596917368e-05 seconds.
Warning: Simulation tolerance relaxed to achieve convergence from 2.5397125657716289e-05 to 2.5397125657717288e-05 seconds.
Warning: Simulation tolerance relaxed to achieve convergence from 2.5397125677771932e-05 to 2.5397125677772931e-05 seconds.
Warning: Simulation tolerance relaxed to achieve convergence from 2.5397125688156749e-05 to 2.5397125688157748e-05 seconds.
Warning: Simulation tolerance relaxed to achieve convergence from 2.5397125695609612e-05 to 2.5397125695610612e-05 seconds.
Warning: Simulation tolerance relaxed to achieve convergence from 2.5397126078684498e-05 to 2.5397126078685497e-05 seconds.
Warning: Simulation tolerance relaxed to achieve convergence from 2.5397126327985779e-05 to 2.5397126327986779e-05 seconds.
Warning: Simulation tolerance relaxed to achieve convergence from 2.5397126328791765e-05 to 2.5397126328792765e-05 seconds.
Warning: Simulation tolerance relaxed to achieve convergence from 2.5397126364629119e-05 to 2.5397126364630119e-05 seconds.
Warning: Simulation tolerance relaxed to achieve convergence from 2.5397126373786955e-05 to 2.5397126373787954e-05 seconds.
Warning: Simulation tolerance relaxed to achieve convergence from 2.5397126451256564e-05 to 2.5397126451257564e-05 seconds.
Warning: Simulation tolerance relaxed to achieve convergence from 2.5397126453271527e-05 to 2.5397126453272527e-05 seconds.
Warning: Simulation tolerance relaxed to achieve convergence from 2.5397127044687407e-05 to 2.5397127044688406e-05 seconds.
Warning: Simulation tolerance relaxed to achieve convergence from 2.5397127050189292e-05 to 2.5397127050190292e-05 seconds.
Warning: Simulation tolerance relaxed to achieve convergence from 2.5397127055749176e-05 to 2.5397127055750175e-05 seconds.
Warning: Simulation tolerance relaxed to achieve convergence from 2.5397127083233667e-05 to 2.5397127083234667e-05 seconds.
Warning: Simulation tolerance relaxed to achieve convergence from 2.5397127110959170e-05 to 2.5397127110960169e-05 seconds.
Warning: Simulation tolerance relaxed to achieve convergence from 2.5397127140477641e-05 to 2.5397127140478641e-05 seconds.
Warning: Simulation tolerance relaxed to achieve convergence from 2.5397127151406443e-05 to 2.5397127151407443e-05 seconds.
Warning: Simulation tolerance relaxed to achieve convergence from 2.5397127166079171e-05 to 2.5397127166080171e-05 seconds.
Warning: Simulation tolerance relaxed to achieve convergence from 2.5397127182178882e-05 to 2.5397127182179882e-05 seconds.
Warning: Simulation tolerance relaxed to achieve convergence from 2.5397127218543230e-05 to 2.5397127218544229e-05 seconds.
Warning: Simulation tolerance relaxed to achieve convergence from 2.5397127355355724e-05 to 2.5397127355356723e-05 seconds.
Warning: Simulation tolerance relaxed to achieve convergence from 2.5397127380387177e-05 to 2.5397127380388177e-05 seconds.
Warning: Simulation tolerance relaxed to achieve convergence from 2.5397127685378554e-05 to 2.5397127685379554e-05 seconds.
Warning: Simulation tolerance relaxed to achieve convergence from 2.5397127752648193e-05 to 2.5397127752649193e-05 seconds.
Warning: Simulation tolerance relaxed to achieve convergence from 2.5397127785906494e-05 to 2.5397127785907494e-05 seconds.
Warning: Simulation tolerance relaxed to achieve convergence from 2.5397127864293044e-05 to 2.5397127864294044e-05 seconds.
Warning: Simulation tolerance relaxed to achieve convergence from 2.5397127893276526e-05 to 2.5397127893277526e-05 seconds.
Warning: Simulation tolerance relaxed to achieve convergence from 2.5397127903674337e-05 to 2.5397127903675336e-05 seconds.
Warning: Simulation tolerance relaxed to achieve convergence from 2.5397127918360069e-05 to 2.5397127918361068e-05 seconds.
Warning: Simulation tolerance relaxed to achieve convergence from 2.5397128051469697e-05 to 2.5397128051470697e-05 seconds.

Simulation stopped by user.
Total elapsed time: 114.021 seconds.

Files loaded:
C:\users\dg\Desktop\UF\design1\PowerMesh\spice\sim\plc.net
C:\users\dg\AppData\Local\LTspice\lib\cmp\standard.dio
C:\users\dg\Desktop\UF\design1\PowerMesh\spice\sim\TLP785.mod

